<additional xmlns:xsi="http://www.w3.org/2001/XMLSchema-instance" xsi:noNamespaceSchemaLocation="http://sumo.dlr.de/xsd/additional_file.xsd">
    <laneAreaDetector file="e2output.xml" freq="5" friendlyPos="x" id="e2det_-E10_0" lane="-E10_0" length="120" endPos="-0.1"/>
    <laneAreaDetector file="e2output.xml" freq="5" friendlyPos="x" id="e2det_-E10_1" lane="-E10_1" length="120" endPos="-0.1"/>
    <laneAreaDetector file="e2output.xml" freq="5" friendlyPos="x" id="e2det_-E8_0" lane="-E8_0" length="120" endPos="-0.1"/>
    <laneAreaDetector file="e2output.xml" freq="5" friendlyPos="x" id="e2det_-E8_1" lane="-E8_1" length="120" endPos="-0.1"/>
    <laneAreaDetector file="e2output.xml" freq="5" friendlyPos="x" id="e2det_-E9_0" lane="-E9_0" length="120" endPos="-0.1"/>
    <laneAreaDetector file="e2output.xml" freq="5" friendlyPos="x" id="e2det_-E9_1" lane="-E9_1" length="120" endPos="-0.1"/>
    <laneAreaDetector file="e2output.xml" freq="5" friendlyPos="x" id="e2det_E7_0" lane="E7_0" length="120" endPos="-0.1"/>
    <laneAreaDetector file="e2output.xml" freq="5" friendlyPos="x" id="e2det_E7_1" lane="E7_1" length="120" endPos="-0.1"/>
</additional>
