<?xml version="1.0" encoding="UTF-8"?>

<!-- generated on 2022-12-30 16:57:04.633785 by randomTrips.py v1_14_1+0000-f654d7b963e
<configuration>
    <additional-files value="vehicles.add.vtype.xml"/>
    <end value="3600"/>
    <fringe-factor value="100.0"/>
    <net-file value="simple.net.xml"/>
    <route-file value="routes.rou.xml"/>
    <trip-attributes value="type=&quot;typedist1&quot;"/>
    <validate value="True"/>
</configuration>
-->

<!-- generated on 2022-12-30 16:57:04 by Eclipse SUMO duarouter Version 1.14.1
<configuration xmlns:xsi="http://www.w3.org/2001/XMLSchema-instance" xsi:noNamespaceSchemaLocation="http://sumo.dlr.de/xsd/duarouterConfiguration.xsd">

    <input>
        <net-file value="simple.net.xml"/>
        <additional-files value="vehicles.add.vtype.xml"/>
        <route-files value="trips.trips.xml"/>
    </input>

    <output>
        <output-file value="routes.rou.xml"/>
        <alternatives-output value="NUL"/>
    </output>

    <time>
        <begin value="0"/>
        <end value="3600"/>
    </time>

    <report>
        <no-warnings value="true"/>
        <ignore-errors value="true"/>
        <no-step-log value="true"/>
    </report>

</configuration>
-->

<routes xmlns:xsi="http://www.w3.org/2001/XMLSchema-instance" xsi:noNamespaceSchemaLocation="http://sumo.dlr.de/xsd/routes_file.xsd">
    <vType id="vTypeBus" maxSpeed="25.00" probability="0.10" vClass="bus" guiShape="bus"/>
    <vehicle id="0" type="vTypeBus" depart="0.00">
        <route edges="-E9 -E7"/>
    </vehicle>
    <vType id="vTypeMotorcycle" maxSpeed="35.00" probability="0.20" vClass="motorcycle" guiShape="motorcycle"/>
    <vehicle id="1" type="vTypeMotorcycle" depart="1.00">
        <route edges="-E8 -E7"/>
    </vehicle>
    <vType id="vTypeCar" length="4.50" maxSpeed="35.00" probability="0.60" vClass="passenger" guiShape="passenger"/>
    <vehicle id="2" type="vTypeCar" depart="2.00">
        <route edges="-E9 E8"/>
    </vehicle>
    <vehicle id="3" type="vTypeCar" depart="3.00">
        <route edges="E7 -E7"/>
    </vehicle>
    <vehicle id="4" type="vTypeCar" depart="4.00">
        <route edges="-E8 -E7"/>
    </vehicle>
    <vehicle id="5" type="vTypeCar" depart="5.00">
        <route edges="-E10 E8"/>
    </vehicle>
    <vehicle id="6" type="vTypeMotorcycle" depart="6.00">
        <route edges="-E10 -E7"/>
    </vehicle>
    <vehicle id="7" type="vTypeCar" depart="7.00">
        <route edges="-E9 E8"/>
    </vehicle>
    <vehicle id="8" type="vTypeCar" depart="8.00">
        <route edges="-E10 E8"/>
    </vehicle>
    <vehicle id="9" type="vTypeMotorcycle" depart="9.00">
        <route edges="E7 -E7"/>
    </vehicle>
    <vehicle id="10" type="vTypeCar" depart="10.00">
        <route edges="E7 E8"/>
    </vehicle>
    <vehicle id="11" type="vTypeMotorcycle" depart="11.00">
        <route edges="-E8 -E7"/>
    </vehicle>
    <vehicle id="12" type="vTypeCar" depart="12.00">
        <route edges="E7 E10"/>
    </vehicle>
    <vehicle id="13" type="vTypeCar" depart="13.00">
        <route edges="-E10 -E7"/>
    </vehicle>
    <vehicle id="14" type="vTypeCar" depart="14.00">
        <route edges="E7 E8"/>
    </vehicle>
    <vehicle id="15" type="vTypeCar" depart="15.00">
        <route edges="E7 E8"/>
    </vehicle>
    <vehicle id="16" type="vTypeCar" depart="16.00">
        <route edges="-E9 E9"/>
    </vehicle>
    <vehicle id="17" type="vTypeBus" depart="17.00">
        <route edges="-E8 E8"/>
    </vehicle>
    <vehicle id="18" type="vTypeCar" depart="18.00">
        <route edges="E7 E8"/>
    </vehicle>
    <vehicle id="19" type="vTypeMotorcycle" depart="19.00">
        <route edges="E7 E8"/>
    </vehicle>
    <vehicle id="20" type="vTypeCar" depart="20.00">
        <route edges="-E9 -E7"/>
    </vehicle>
    <vehicle id="21" type="vTypeCar" depart="21.00">
        <route edges="-E10 E10"/>
    </vehicle>
    <vehicle id="22" type="vTypeCar" depart="22.00">
        <route edges="-E10 -E7"/>
    </vehicle>
    <vehicle id="23" type="vTypeMotorcycle" depart="23.00">
        <route edges="-E10 E10"/>
    </vehicle>
    <vType id="vTypeEmergency" maxSpeed="40.00" probability="0.10" vClass="emergency" guiShape="emergency"/>
    <vehicle id="24" type="vTypeEmergency" depart="24.00">
        <route edges="-E9 E10"/>
    </vehicle>
    <vehicle id="25" type="vTypeBus" depart="25.00">
        <route edges="-E8 -E7"/>
    </vehicle>
    <vehicle id="26" type="vTypeBus" depart="26.00">
        <route edges="-E8 E9"/>
    </vehicle>
    <vehicle id="27" type="vTypeCar" depart="27.00">
        <route edges="-E9 E8"/>
    </vehicle>
    <vehicle id="28" type="vTypeCar" depart="28.00">
        <route edges="-E10 E8"/>
    </vehicle>
    <vehicle id="29" type="vTypeCar" depart="29.00">
        <route edges="-E10 E10"/>
    </vehicle>
    <vehicle id="30" type="vTypeCar" depart="30.00">
        <route edges="E7 E8"/>
    </vehicle>
    <vehicle id="31" type="vTypeCar" depart="31.00">
        <route edges="-E9 E8"/>
    </vehicle>
    <vehicle id="32" type="vTypeMotorcycle" depart="32.00">
        <route edges="E7 E9"/>
    </vehicle>
    <vehicle id="33" type="vTypeCar" depart="33.00">
        <route edges="-E10 -E7"/>
    </vehicle>
    <vehicle id="34" type="vTypeEmergency" depart="34.00">
        <route edges="-E8 E10"/>
    </vehicle>
    <vehicle id="35" type="vTypeCar" depart="35.00">
        <route edges="-E10 E9"/>
    </vehicle>
    <vehicle id="36" type="vTypeMotorcycle" depart="36.00">
        <route edges="E7 E10"/>
    </vehicle>
    <vehicle id="37" type="vTypeCar" depart="37.00">
        <route edges="-E9 E10"/>
    </vehicle>
    <vehicle id="38" type="vTypeCar" depart="38.00">
        <route edges="E7 E10"/>
    </vehicle>
    <vehicle id="39" type="vTypeCar" depart="39.00">
        <route edges="-E8 -E7"/>
    </vehicle>
    <vehicle id="40" type="vTypeCar" depart="40.00">
        <route edges="-E9 E10"/>
    </vehicle>
    <vehicle id="41" type="vTypeEmergency" depart="41.00">
        <route edges="-E9 E9"/>
    </vehicle>
    <vehicle id="42" type="vTypeCar" depart="42.00">
        <route edges="-E8 -E7"/>
    </vehicle>
    <vehicle id="43" type="vTypeCar" depart="43.00">
        <route edges="E7 E8"/>
    </vehicle>
    <vehicle id="44" type="vTypeCar" depart="44.00">
        <route edges="-E10 -E7"/>
    </vehicle>
    <vehicle id="45" type="vTypeCar" depart="45.00">
        <route edges="-E10 E8"/>
    </vehicle>
    <vehicle id="46" type="vTypeCar" depart="46.00">
        <route edges="E7 E10"/>
    </vehicle>
    <vehicle id="47" type="vTypeBus" depart="47.00">
        <route edges="-E10 E10"/>
    </vehicle>
    <vehicle id="48" type="vTypeCar" depart="48.00">
        <route edges="E7 E8"/>
    </vehicle>
    <vehicle id="49" type="vTypeMotorcycle" depart="49.00">
        <route edges="E7 E9"/>
    </vehicle>
    <vehicle id="50" type="vTypeMotorcycle" depart="50.00">
        <route edges="-E10 E8"/>
    </vehicle>
    <vehicle id="51" type="vTypeCar" depart="51.00">
        <route edges="-E9 E8"/>
    </vehicle>
    <vehicle id="52" type="vTypeMotorcycle" depart="52.00">
        <route edges="-E8 E8"/>
    </vehicle>
    <vehicle id="53" type="vTypeEmergency" depart="53.00">
        <route edges="-E10 E10"/>
    </vehicle>
    <vehicle id="54" type="vTypeEmergency" depart="54.00">
        <route edges="-E8 E9"/>
    </vehicle>
    <vehicle id="55" type="vTypeCar" depart="55.00">
        <route edges="E7 E10"/>
    </vehicle>
    <vehicle id="56" type="vTypeCar" depart="56.00">
        <route edges="-E9 -E7"/>
    </vehicle>
    <vehicle id="57" type="vTypeCar" depart="57.00">
        <route edges="E7 E9"/>
    </vehicle>
    <vehicle id="58" type="vTypeCar" depart="58.00">
        <route edges="-E8 E8"/>
    </vehicle>
    <vehicle id="59" type="vTypeEmergency" depart="59.00">
        <route edges="-E9 -E7"/>
    </vehicle>
    <vehicle id="60" type="vTypeCar" depart="60.00">
        <route edges="E7 E8"/>
    </vehicle>
    <vehicle id="61" type="vTypeMotorcycle" depart="61.00">
        <route edges="E7 E8"/>
    </vehicle>
    <vehicle id="62" type="vTypeCar" depart="62.00">
        <route edges="-E10 E10"/>
    </vehicle>
    <vehicle id="63" type="vTypeCar" depart="63.00">
        <route edges="-E10 E9"/>
    </vehicle>
    <vehicle id="64" type="vTypeCar" depart="64.00">
        <route edges="E7 E9"/>
    </vehicle>
    <vehicle id="65" type="vTypeCar" depart="65.00">
        <route edges="-E8 -E7"/>
    </vehicle>
    <vehicle id="66" type="vTypeEmergency" depart="66.00">
        <route edges="E7 E9"/>
    </vehicle>
    <vehicle id="67" type="vTypeCar" depart="67.00">
        <route edges="-E10 E10"/>
    </vehicle>
    <vehicle id="68" type="vTypeCar" depart="68.00">
        <route edges="-E10 E9"/>
    </vehicle>
    <vehicle id="69" type="vTypeEmergency" depart="69.00">
        <route edges="E7 -E7"/>
    </vehicle>
    <vehicle id="70" type="vTypeCar" depart="70.00">
        <route edges="-E8 E8"/>
    </vehicle>
    <vehicle id="71" type="vTypeCar" depart="71.00">
        <route edges="-E8 E9"/>
    </vehicle>
    <vehicle id="72" type="vTypeCar" depart="72.00">
        <route edges="-E8 -E7"/>
    </vehicle>
    <vehicle id="73" type="vTypeCar" depart="73.00">
        <route edges="-E9 E8"/>
    </vehicle>
    <vehicle id="74" type="vTypeCar" depart="74.00">
        <route edges="-E10 E10"/>
    </vehicle>
    <vehicle id="75" type="vTypeCar" depart="75.00">
        <route edges="E7 E8"/>
    </vehicle>
    <vehicle id="76" type="vTypeCar" depart="76.00">
        <route edges="-E8 E8"/>
    </vehicle>
    <vehicle id="77" type="vTypeCar" depart="77.00">
        <route edges="-E10 -E7"/>
    </vehicle>
    <vehicle id="78" type="vTypeMotorcycle" depart="78.00">
        <route edges="-E8 E8"/>
    </vehicle>
    <vehicle id="79" type="vTypeCar" depart="79.00">
        <route edges="-E10 -E7"/>
    </vehicle>
    <vehicle id="80" type="vTypeCar" depart="80.00">
        <route edges="-E10 E8"/>
    </vehicle>
    <vehicle id="81" type="vTypeCar" depart="81.00">
        <route edges="-E10 E9"/>
    </vehicle>
    <vehicle id="82" type="vTypeMotorcycle" depart="82.00">
        <route edges="E7 -E7"/>
    </vehicle>
    <vehicle id="83" type="vTypeCar" depart="83.00">
        <route edges="-E10 E8"/>
    </vehicle>
    <vehicle id="84" type="vTypeMotorcycle" depart="84.00">
        <route edges="-E10 -E7"/>
    </vehicle>
    <vehicle id="85" type="vTypeCar" depart="85.00">
        <route edges="E7 E8"/>
    </vehicle>
    <vehicle id="86" type="vTypeCar" depart="86.00">
        <route edges="-E8 E9"/>
    </vehicle>
    <vehicle id="87" type="vTypeBus" depart="87.00">
        <route edges="E7 -E7"/>
    </vehicle>
    <vehicle id="88" type="vTypeCar" depart="88.00">
        <route edges="-E10 E10"/>
    </vehicle>
    <vehicle id="89" type="vTypeCar" depart="89.00">
        <route edges="-E8 E10"/>
    </vehicle>
    <vehicle id="90" type="vTypeCar" depart="90.00">
        <route edges="-E9 E8"/>
    </vehicle>
    <vehicle id="91" type="vTypeEmergency" depart="91.00">
        <route edges="E7 -E7"/>
    </vehicle>
    <vehicle id="92" type="vTypeCar" depart="92.00">
        <route edges="-E8 E10"/>
    </vehicle>
    <vehicle id="93" type="vTypeCar" depart="93.00">
        <route edges="E7 -E7"/>
    </vehicle>
    <vehicle id="94" type="vTypeCar" depart="94.00">
        <route edges="-E10 E10"/>
    </vehicle>
    <vehicle id="95" type="vTypeBus" depart="95.00">
        <route edges="-E8 E10"/>
    </vehicle>
    <vehicle id="96" type="vTypeMotorcycle" depart="96.00">
        <route edges="-E10 E9"/>
    </vehicle>
    <vehicle id="97" type="vTypeEmergency" depart="97.00">
        <route edges="-E8 E9"/>
    </vehicle>
    <vehicle id="98" type="vTypeCar" depart="98.00">
        <route edges="-E9 -E7"/>
    </vehicle>
    <vehicle id="99" type="vTypeCar" depart="99.00">
        <route edges="E7 E9"/>
    </vehicle>
    <vehicle id="100" type="vTypeMotorcycle" depart="100.00">
        <route edges="E7 E9"/>
    </vehicle>
    <vehicle id="101" type="vTypeCar" depart="101.00">
        <route edges="E7 -E7"/>
    </vehicle>
    <vehicle id="102" type="vTypeBus" depart="102.00">
        <route edges="-E8 -E7"/>
    </vehicle>
    <vehicle id="103" type="vTypeCar" depart="103.00">
        <route edges="-E8 -E7"/>
    </vehicle>
    <vehicle id="104" type="vTypeEmergency" depart="104.00">
        <route edges="-E8 E9"/>
    </vehicle>
    <vehicle id="105" type="vTypeCar" depart="105.00">
        <route edges="-E8 E9"/>
    </vehicle>
    <vehicle id="106" type="vTypeCar" depart="106.00">
        <route edges="-E8 E10"/>
    </vehicle>
    <vehicle id="107" type="vTypeCar" depart="107.00">
        <route edges="E7 E9"/>
    </vehicle>
    <vehicle id="108" type="vTypeMotorcycle" depart="108.00">
        <route edges="-E9 E8"/>
    </vehicle>
    <vehicle id="109" type="vTypeCar" depart="109.00">
        <route edges="-E10 E10"/>
    </vehicle>
    <vehicle id="110" type="vTypeCar" depart="110.00">
        <route edges="E7 E8"/>
    </vehicle>
    <vehicle id="111" type="vTypeMotorcycle" depart="111.00">
        <route edges="-E9 E8"/>
    </vehicle>
    <vehicle id="112" type="vTypeMotorcycle" depart="112.00">
        <route edges="-E10 E8"/>
    </vehicle>
    <vehicle id="113" type="vTypeCar" depart="113.00">
        <route edges="-E9 E9"/>
    </vehicle>
    <vehicle id="114" type="vTypeMotorcycle" depart="114.00">
        <route edges="-E10 E9"/>
    </vehicle>
    <vehicle id="115" type="vTypeCar" depart="115.00">
        <route edges="-E10 -E7"/>
    </vehicle>
    <vehicle id="116" type="vTypeMotorcycle" depart="116.00">
        <route edges="-E9 E8"/>
    </vehicle>
    <vehicle id="117" type="vTypeCar" depart="117.00">
        <route edges="-E10 -E7"/>
    </vehicle>
    <vehicle id="118" type="vTypeBus" depart="118.00">
        <route edges="E7 -E7"/>
    </vehicle>
    <vehicle id="119" type="vTypeCar" depart="119.00">
        <route edges="-E9 E8"/>
    </vehicle>
    <vehicle id="120" type="vTypeCar" depart="120.00">
        <route edges="-E8 E8"/>
    </vehicle>
    <vehicle id="121" type="vTypeCar" depart="121.00">
        <route edges="-E9 E9"/>
    </vehicle>
    <vehicle id="122" type="vTypeCar" depart="122.00">
        <route edges="-E10 E8"/>
    </vehicle>
    <vehicle id="123" type="vTypeMotorcycle" depart="123.00">
        <route edges="-E10 E10"/>
    </vehicle>
    <vehicle id="124" type="vTypeEmergency" depart="124.00">
        <route edges="-E9 E10"/>
    </vehicle>
    <vehicle id="125" type="vTypeBus" depart="125.00">
        <route edges="-E8 E9"/>
    </vehicle>
    <vehicle id="126" type="vTypeCar" depart="126.00">
        <route edges="-E10 E10"/>
    </vehicle>
    <vehicle id="127" type="vTypeEmergency" depart="127.00">
        <route edges="E7 E9"/>
    </vehicle>
    <vehicle id="128" type="vTypeCar" depart="128.00">
        <route edges="-E10 -E7"/>
    </vehicle>
    <vehicle id="129" type="vTypeMotorcycle" depart="129.00">
        <route edges="-E8 E9"/>
    </vehicle>
    <vehicle id="130" type="vTypeCar" depart="130.00">
        <route edges="E7 E9"/>
    </vehicle>
    <vehicle id="131" type="vTypeCar" depart="131.00">
        <route edges="-E8 -E7"/>
    </vehicle>
    <vehicle id="132" type="vTypeCar" depart="132.00">
        <route edges="E7 E8"/>
    </vehicle>
    <vehicle id="133" type="vTypeCar" depart="133.00">
        <route edges="-E9 E9"/>
    </vehicle>
    <vehicle id="134" type="vTypeMotorcycle" depart="134.00">
        <route edges="-E9 -E7"/>
    </vehicle>
    <vehicle id="135" type="vTypeCar" depart="135.00">
        <route edges="E7 E10"/>
    </vehicle>
    <vehicle id="136" type="vTypeCar" depart="136.00">
        <route edges="-E9 E9"/>
    </vehicle>
    <vehicle id="137" type="vTypeCar" depart="137.00">
        <route edges="-E10 -E7"/>
    </vehicle>
    <vehicle id="138" type="vTypeBus" depart="138.00">
        <route edges="-E10 E8"/>
    </vehicle>
    <vehicle id="139" type="vTypeMotorcycle" depart="139.00">
        <route edges="-E8 E8"/>
    </vehicle>
    <vehicle id="140" type="vTypeBus" depart="140.00">
        <route edges="-E9 -E7"/>
    </vehicle>
    <vehicle id="141" type="vTypeEmergency" depart="141.00">
        <route edges="-E9 E10"/>
    </vehicle>
    <vehicle id="142" type="vTypeCar" depart="142.00">
        <route edges="-E8 E9"/>
    </vehicle>
    <vehicle id="143" type="vTypeCar" depart="143.00">
        <route edges="E7 -E7"/>
    </vehicle>
    <vehicle id="144" type="vTypeEmergency" depart="144.00">
        <route edges="-E8 E10"/>
    </vehicle>
    <vehicle id="145" type="vTypeBus" depart="145.00">
        <route edges="-E10 E9"/>
    </vehicle>
    <vehicle id="146" type="vTypeCar" depart="146.00">
        <route edges="-E9 E10"/>
    </vehicle>
    <vehicle id="147" type="vTypeEmergency" depart="147.00">
        <route edges="-E9 E8"/>
    </vehicle>
    <vehicle id="148" type="vTypeCar" depart="148.00">
        <route edges="-E8 -E7"/>
    </vehicle>
    <vehicle id="149" type="vTypeCar" depart="149.00">
        <route edges="-E10 E9"/>
    </vehicle>
    <vehicle id="150" type="vTypeMotorcycle" depart="150.00">
        <route edges="E7 E8"/>
    </vehicle>
    <vehicle id="151" type="vTypeCar" depart="151.00">
        <route edges="E7 E8"/>
    </vehicle>
    <vehicle id="152" type="vTypeCar" depart="152.00">
        <route edges="-E10 -E7"/>
    </vehicle>
    <vehicle id="153" type="vTypeCar" depart="153.00">
        <route edges="-E8 E9"/>
    </vehicle>
    <vehicle id="154" type="vTypeMotorcycle" depart="154.00">
        <route edges="E7 E9"/>
    </vehicle>
    <vehicle id="155" type="vTypeEmergency" depart="155.00">
        <route edges="E7 -E7"/>
    </vehicle>
    <vehicle id="156" type="vTypeCar" depart="156.00">
        <route edges="-E10 -E7"/>
    </vehicle>
    <vehicle id="157" type="vTypeCar" depart="157.00">
        <route edges="E7 E9"/>
    </vehicle>
    <vehicle id="158" type="vTypeEmergency" depart="158.00">
        <route edges="-E8 E8"/>
    </vehicle>
    <vehicle id="159" type="vTypeCar" depart="159.00">
        <route edges="-E10 E9"/>
    </vehicle>
    <vehicle id="160" type="vTypeCar" depart="160.00">
        <route edges="E7 E9"/>
    </vehicle>
    <vehicle id="161" type="vTypeBus" depart="161.00">
        <route edges="E7 E9"/>
    </vehicle>
    <vehicle id="162" type="vTypeBus" depart="162.00">
        <route edges="-E10 E8"/>
    </vehicle>
    <vehicle id="163" type="vTypeCar" depart="163.00">
        <route edges="-E8 E9"/>
    </vehicle>
    <vehicle id="164" type="vTypeEmergency" depart="164.00">
        <route edges="E7 E9"/>
    </vehicle>
    <vehicle id="165" type="vTypeCar" depart="165.00">
        <route edges="E7 E10"/>
    </vehicle>
    <vehicle id="166" type="vTypeEmergency" depart="166.00">
        <route edges="E7 -E7"/>
    </vehicle>
    <vehicle id="167" type="vTypeMotorcycle" depart="167.00">
        <route edges="E7 E9"/>
    </vehicle>
    <vehicle id="168" type="vTypeCar" depart="168.00">
        <route edges="-E10 E9"/>
    </vehicle>
    <vehicle id="169" type="vTypeBus" depart="169.00">
        <route edges="-E8 E10"/>
    </vehicle>
    <vehicle id="170" type="vTypeCar" depart="170.00">
        <route edges="E7 -E7"/>
    </vehicle>
    <vehicle id="171" type="vTypeCar" depart="171.00">
        <route edges="-E10 -E7"/>
    </vehicle>
    <vehicle id="172" type="vTypeCar" depart="172.00">
        <route edges="-E8 E9"/>
    </vehicle>
    <vehicle id="173" type="vTypeCar" depart="173.00">
        <route edges="E7 E10"/>
    </vehicle>
    <vehicle id="174" type="vTypeCar" depart="174.00">
        <route edges="-E9 E10"/>
    </vehicle>
    <vehicle id="175" type="vTypeMotorcycle" depart="175.00">
        <route edges="E7 E8"/>
    </vehicle>
    <vehicle id="176" type="vTypeCar" depart="176.00">
        <route edges="E7 -E7"/>
    </vehicle>
    <vehicle id="177" type="vTypeCar" depart="177.00">
        <route edges="E7 -E7"/>
    </vehicle>
    <vehicle id="178" type="vTypeBus" depart="178.00">
        <route edges="E7 E10"/>
    </vehicle>
    <vehicle id="179" type="vTypeCar" depart="179.00">
        <route edges="-E10 E10"/>
    </vehicle>
    <vehicle id="180" type="vTypeCar" depart="180.00">
        <route edges="-E9 E10"/>
    </vehicle>
    <vehicle id="181" type="vTypeCar" depart="181.00">
        <route edges="-E9 E8"/>
    </vehicle>
    <vehicle id="182" type="vTypeMotorcycle" depart="182.00">
        <route edges="-E8 E8"/>
    </vehicle>
    <vehicle id="183" type="vTypeCar" depart="183.00">
        <route edges="-E8 E8"/>
    </vehicle>
    <vehicle id="184" type="vTypeCar" depart="184.00">
        <route edges="-E10 E9"/>
    </vehicle>
    <vehicle id="185" type="vTypeCar" depart="185.00">
        <route edges="-E9 E8"/>
    </vehicle>
    <vehicle id="186" type="vTypeCar" depart="186.00">
        <route edges="-E9 E8"/>
    </vehicle>
    <vehicle id="187" type="vTypeCar" depart="187.00">
        <route edges="-E8 -E7"/>
    </vehicle>
    <vehicle id="188" type="vTypeEmergency" depart="188.00">
        <route edges="-E9 E10"/>
    </vehicle>
    <vehicle id="189" type="vTypeCar" depart="189.00">
        <route edges="-E8 E9"/>
    </vehicle>
    <vehicle id="190" type="vTypeCar" depart="190.00">
        <route edges="-E9 E10"/>
    </vehicle>
    <vehicle id="191" type="vTypeBus" depart="191.00">
        <route edges="-E8 E10"/>
    </vehicle>
    <vehicle id="192" type="vTypeCar" depart="192.00">
        <route edges="-E8 E10"/>
    </vehicle>
    <vehicle id="193" type="vTypeCar" depart="193.00">
        <route edges="-E10 E10"/>
    </vehicle>
    <vehicle id="194" type="vTypeCar" depart="194.00">
        <route edges="E7 E8"/>
    </vehicle>
    <vehicle id="195" type="vTypeEmergency" depart="195.00">
        <route edges="E7 E8"/>
    </vehicle>
    <vehicle id="196" type="vTypeCar" depart="196.00">
        <route edges="-E8 E8"/>
    </vehicle>
    <vehicle id="197" type="vTypeEmergency" depart="197.00">
        <route edges="-E10 E10"/>
    </vehicle>
    <vehicle id="198" type="vTypeCar" depart="198.00">
        <route edges="-E8 E8"/>
    </vehicle>
    <vehicle id="199" type="vTypeMotorcycle" depart="199.00">
        <route edges="-E9 E10"/>
    </vehicle>
    <vehicle id="200" type="vTypeCar" depart="200.00">
        <route edges="-E8 -E7"/>
    </vehicle>
    <vehicle id="201" type="vTypeCar" depart="201.00">
        <route edges="-E8 E9"/>
    </vehicle>
    <vehicle id="202" type="vTypeCar" depart="202.00">
        <route edges="E7 -E7"/>
    </vehicle>
    <vehicle id="203" type="vTypeCar" depart="203.00">
        <route edges="-E10 E8"/>
    </vehicle>
    <vehicle id="204" type="vTypeMotorcycle" depart="204.00">
        <route edges="-E9 E10"/>
    </vehicle>
    <vehicle id="205" type="vTypeMotorcycle" depart="205.00">
        <route edges="E7 E9"/>
    </vehicle>
    <vehicle id="206" type="vTypeMotorcycle" depart="206.00">
        <route edges="-E9 -E7"/>
    </vehicle>
    <vehicle id="207" type="vTypeCar" depart="207.00">
        <route edges="-E10 -E7"/>
    </vehicle>
    <vehicle id="208" type="vTypeCar" depart="208.00">
        <route edges="-E10 E10"/>
    </vehicle>
    <vehicle id="209" type="vTypeCar" depart="209.00">
        <route edges="E7 -E7"/>
    </vehicle>
    <vehicle id="210" type="vTypeCar" depart="210.00">
        <route edges="-E8 E8"/>
    </vehicle>
    <vehicle id="211" type="vTypeCar" depart="211.00">
        <route edges="-E10 E8"/>
    </vehicle>
    <vehicle id="212" type="vTypeCar" depart="212.00">
        <route edges="-E8 -E7"/>
    </vehicle>
    <vehicle id="213" type="vTypeMotorcycle" depart="213.00">
        <route edges="-E9 -E7"/>
    </vehicle>
    <vehicle id="214" type="vTypeMotorcycle" depart="214.00">
        <route edges="E7 E9"/>
    </vehicle>
    <vehicle id="215" type="vTypeMotorcycle" depart="215.00">
        <route edges="-E10 E10"/>
    </vehicle>
    <vehicle id="216" type="vTypeCar" depart="216.00">
        <route edges="-E10 E9"/>
    </vehicle>
    <vehicle id="217" type="vTypeEmergency" depart="217.00">
        <route edges="-E9 -E7"/>
    </vehicle>
    <vehicle id="218" type="vTypeCar" depart="218.00">
        <route edges="-E10 E9"/>
    </vehicle>
    <vehicle id="219" type="vTypeCar" depart="219.00">
        <route edges="-E8 E9"/>
    </vehicle>
    <vehicle id="220" type="vTypeCar" depart="220.00">
        <route edges="-E9 E9"/>
    </vehicle>
    <vehicle id="221" type="vTypeCar" depart="221.00">
        <route edges="-E9 E9"/>
    </vehicle>
    <vehicle id="222" type="vTypeCar" depart="222.00">
        <route edges="E7 E8"/>
    </vehicle>
    <vehicle id="223" type="vTypeCar" depart="223.00">
        <route edges="-E9 E8"/>
    </vehicle>
    <vehicle id="224" type="vTypeCar" depart="224.00">
        <route edges="E7 E8"/>
    </vehicle>
    <vehicle id="225" type="vTypeEmergency" depart="225.00">
        <route edges="E7 E8"/>
    </vehicle>
    <vehicle id="226" type="vTypeEmergency" depart="226.00">
        <route edges="-E8 E10"/>
    </vehicle>
    <vehicle id="227" type="vTypeCar" depart="227.00">
        <route edges="-E10 E8"/>
    </vehicle>
    <vehicle id="228" type="vTypeEmergency" depart="228.00">
        <route edges="E7 E8"/>
    </vehicle>
    <vehicle id="229" type="vTypeCar" depart="229.00">
        <route edges="-E9 E10"/>
    </vehicle>
    <vehicle id="230" type="vTypeCar" depart="230.00">
        <route edges="-E10 E10"/>
    </vehicle>
    <vehicle id="231" type="vTypeCar" depart="231.00">
        <route edges="-E8 E10"/>
    </vehicle>
    <vehicle id="232" type="vTypeCar" depart="232.00">
        <route edges="-E9 -E7"/>
    </vehicle>
    <vehicle id="233" type="vTypeCar" depart="233.00">
        <route edges="-E10 E8"/>
    </vehicle>
    <vehicle id="234" type="vTypeCar" depart="234.00">
        <route edges="-E9 -E7"/>
    </vehicle>
    <vehicle id="235" type="vTypeMotorcycle" depart="235.00">
        <route edges="-E8 E8"/>
    </vehicle>
    <vehicle id="236" type="vTypeBus" depart="236.00">
        <route edges="-E8 -E7"/>
    </vehicle>
    <vehicle id="237" type="vTypeCar" depart="237.00">
        <route edges="-E8 E9"/>
    </vehicle>
    <vehicle id="238" type="vTypeEmergency" depart="238.00">
        <route edges="-E9 E8"/>
    </vehicle>
    <vehicle id="239" type="vTypeCar" depart="239.00">
        <route edges="E7 E9"/>
    </vehicle>
    <vehicle id="240" type="vTypeCar" depart="240.00">
        <route edges="-E8 -E7"/>
    </vehicle>
    <vehicle id="241" type="vTypeCar" depart="241.00">
        <route edges="-E8 E9"/>
    </vehicle>
    <vehicle id="242" type="vTypeCar" depart="242.00">
        <route edges="E7 E9"/>
    </vehicle>
    <vehicle id="243" type="vTypeCar" depart="243.00">
        <route edges="-E8 E8"/>
    </vehicle>
    <vehicle id="244" type="vTypeCar" depart="244.00">
        <route edges="-E9 E8"/>
    </vehicle>
    <vehicle id="245" type="vTypeCar" depart="245.00">
        <route edges="-E10 -E7"/>
    </vehicle>
    <vehicle id="246" type="vTypeEmergency" depart="246.00">
        <route edges="-E8 -E7"/>
    </vehicle>
    <vehicle id="247" type="vTypeCar" depart="247.00">
        <route edges="-E8 E8"/>
    </vehicle>
    <vehicle id="248" type="vTypeCar" depart="248.00">
        <route edges="-E8 -E7"/>
    </vehicle>
    <vehicle id="249" type="vTypeCar" depart="249.00">
        <route edges="-E8 -E7"/>
    </vehicle>
    <vehicle id="250" type="vTypeCar" depart="250.00">
        <route edges="-E9 -E7"/>
    </vehicle>
    <vehicle id="251" type="vTypeMotorcycle" depart="251.00">
        <route edges="-E8 E8"/>
    </vehicle>
    <vehicle id="252" type="vTypeCar" depart="252.00">
        <route edges="-E10 E8"/>
    </vehicle>
    <vehicle id="253" type="vTypeCar" depart="253.00">
        <route edges="-E10 E10"/>
    </vehicle>
    <vehicle id="254" type="vTypeCar" depart="254.00">
        <route edges="-E10 E10"/>
    </vehicle>
    <vehicle id="255" type="vTypeCar" depart="255.00">
        <route edges="-E10 E10"/>
    </vehicle>
    <vehicle id="256" type="vTypeMotorcycle" depart="256.00">
        <route edges="E7 E10"/>
    </vehicle>
    <vehicle id="257" type="vTypeMotorcycle" depart="257.00">
        <route edges="E7 E9"/>
    </vehicle>
    <vehicle id="258" type="vTypeCar" depart="258.00">
        <route edges="-E8 -E7"/>
    </vehicle>
    <vehicle id="259" type="vTypeCar" depart="259.00">
        <route edges="-E10 E8"/>
    </vehicle>
    <vehicle id="260" type="vTypeCar" depart="260.00">
        <route edges="E7 E10"/>
    </vehicle>
    <vehicle id="261" type="vTypeBus" depart="261.00">
        <route edges="-E9 E9"/>
    </vehicle>
    <vehicle id="262" type="vTypeCar" depart="262.00">
        <route edges="-E9 E9"/>
    </vehicle>
    <vehicle id="263" type="vTypeCar" depart="263.00">
        <route edges="E7 -E7"/>
    </vehicle>
    <vehicle id="264" type="vTypeCar" depart="264.00">
        <route edges="-E10 -E7"/>
    </vehicle>
    <vehicle id="265" type="vTypeCar" depart="265.00">
        <route edges="-E10 E8"/>
    </vehicle>
    <vehicle id="266" type="vTypeMotorcycle" depart="266.00">
        <route edges="-E9 -E7"/>
    </vehicle>
    <vehicle id="267" type="vTypeCar" depart="267.00">
        <route edges="-E9 E9"/>
    </vehicle>
    <vehicle id="268" type="vTypeEmergency" depart="268.00">
        <route edges="-E10 E8"/>
    </vehicle>
    <vehicle id="269" type="vTypeBus" depart="269.00">
        <route edges="-E9 -E7"/>
    </vehicle>
    <vehicle id="270" type="vTypeMotorcycle" depart="270.00">
        <route edges="E7 E9"/>
    </vehicle>
    <vehicle id="271" type="vTypeCar" depart="271.00">
        <route edges="-E10 -E7"/>
    </vehicle>
    <vehicle id="272" type="vTypeEmergency" depart="272.00">