<?xml version="1.0" encoding="UTF-8"?>

<!-- generated on 2022-10-14 19:47:15.983078 by randomTrips.py v1_14_1+0000-f654d7b963e
<configuration>
    <end value="1000"/>
    <fringe-factor value="10.0"/>
    <net-file value="simple.net.xml"/>
    <pedestrians value="True"/>
    <route-file value="routes.rou.xml"/>
    <output-trip-file value="pedTrips.trips.xml"/>
    <validate value="True"/>
</configuration>
-->

<!-- generated on 2022-10-14 19:47:15 by Eclipse SUMO duarouter Version 1.14.1
<configuration xmlns:xsi="http://www.w3.org/2001/XMLSchema-instance" xsi:noNamespaceSchemaLocation="http://sumo.dlr.de/xsd/duarouterConfiguration.xsd">

    <input>
        <net-file value="simple.net.xml"/>
        <route-files value="pedTrips.trips.xml"/>
    </input>

    <output>
        <output-file value="routes.rou.xml"/>
        <alternatives-output value="NUL"/>
    </output>

    <time>
        <begin value="0"/>
        <end value="1000"/>
    </time>

    <report>
        <no-warnings value="true"/>
        <ignore-errors value="true"/>
        <no-step-log value="true"/>
    </report>

</configuration>
-->

<routes xmlns:xsi="http://www.w3.org/2001/XMLSchema-instance" xsi:noNamespaceSchemaLocation="http://sumo.dlr.de/xsd/routes_file.xsd">
    <person id="0" depart="0.00">
        <walk edges="E1 -E0"/>
    </person>
    <person id="1" depart="1.00">
        <walk edges="-E2 E1 -E1"/>
    </person>
    <person id="2" depart="2.00">
        <walk edges="E1"/>
    </person>
    <person id="3" depart="3.00">
        <walk edges="E3 -E0"/>
    </person>
    <person id="4" depart="4.00">
        <walk edges="-E3 -E0"/>
    </person>
    <person id="5" depart="5.00">
        <walk edges="-E1 E1 E0"/>
    </person>
    <person id="6" depart="6.00">
        <walk edges="-E0 -E1"/>
    </person>
    <person id="7" depart="7.00">
        <walk edges="E1 E0"/>
    </person>
    <person id="8" depart="8.00">
        <walk edges="-E1 E1 E0"/>
    </person>
    <person id="9" depart="9.00">
        <walk edges="E2 -E0"/>
    </person>
    <person id="10" depart="10.00">
        <walk edges="E2 E1"/>
    </person>
    <person id="11" depart="11.00">
        <walk edges="-E2 E1 -E1"/>
    </person>
    <person id="12" depart="12.00">
        <walk edges="E3 -E2"/>
    </person>
    <person id="13" depart="13.00">
        <walk edges="-E0"/>
    </person>
    <person id="14" depart="14.00">
        <walk edges="E2 E0"/>
    </person>
    <person id="15" depart="15.00">
        <walk edges="E2 E1"/>
    </person>
    <person id="16" depart="16.00">
        <walk edges="E0 -E0 E3"/>
    </person>
    <person id="17" depart="17.00">
        <walk edges="-E3 -E0 E0"/>
    </person>
    <person id="18" depart="18.00">
        <walk edges="E2 E0"/>
    </person>
    <person id="19" depart="19.00">
        <walk edges="E2 E0"/>
    </person>
    <person id="20" depart="20.00">
        <walk edges="E1 -E0"/>
    </person>
    <person id="21" depart="21.00">
        <walk edges="-E1 E1 -E2"/>
    </person>
    <person id="22" depart="22.00">
        <walk edges="-E0 -E1"/>
    </person>
    <person id="23" depart="23.00">
        <walk edges="-E0 E2 -E2"/>
    </person>
    <person id="24" depart="24.00">
        <walk edges="E1 -E2"/>
    </person>
    <person id="25" depart="25.00">
        <walk edges="-E2 E1 -E1"/>
    </person>
    <person id="26" depart="26.00">
        <walk edges="-E2 E3"/>
    </person>
    <person id="27" depart="27.00">
        <walk edges="E1 E0"/>
    </person>
    <person id="28" depart="28.00">
        <walk edges="-E1 E1"/>
    </person>
    <person id="29" depart="29.00">
        <walk edges="-E1 E3 -E3"/>
    </person>
    <person id="30" depart="30.00">
        <walk edges="E3 E1"/>
    </person>
    <person id="31" depart="31.00">
        <walk edges="E0 E1"/>
    </person>
    <person id="32" depart="32.00">
        <walk edges="E2"/>
    </person>
    <person id="33" depart="33.00">
        <walk edges="-E1 -E0"/>
    </person>
    <person id="34" depart="34.00">
        <walk edges="-E2"/>
    </person>
    <person id="35" depart="35.00">
        <walk edges="-E1 E3"/>
    </person>
    <person id="36" depart="36.00">
        <walk edges="E3 -E2"/>
    </person>
    <person id="37" depart="37.00">
        <walk edges="E1 E3 -E3"/>
    </person>
    <person id="38" depart="38.00">
        <walk edges="E3 -E3"/>
    </person>
    <person id="39" depart="39.00">
        <walk edges="-E2 E1 -E1"/>
    </person>
    <person id="40" depart="40.00">
        <walk edges="E0 E2 -E2"/>
    </person>
    <person id="41" depart="41.00">
        <walk edges="E0 -E0 E3"/>
    </person>
    <person id="42" depart="42.00">
        <walk edges="-E3 E3 -E1"/>
    </person>
    <person id="43" depart="43.00">
        <walk edges="E3 -E0 E0"/>
    </person>
    <person id="44" depart="44.00">
        <walk edges="-E0"/>
    </person>
    <person id="45" depart="45.00">
        <walk edges="-E0 E1"/>
    </person>
    <person id="46" depart="46.00">
        <walk edges="E2 -E3"/>
    </person>
    <person id="47" depart="47.00">
        <walk edges="-E0 -E3"/>
    </person>
    <person id="48" depart="48.00">
        <walk edges="E3 -E0 E0"/>
    </person>
    <person id="49" depart="49.00">
        <walk edges="E3 E2"/>
    </person>
    <person id="50" depart="50.00">
        <walk edges="-E0 E1"/>
    </person>
    <person id="51" depart="51.00">
        <walk edges="E1 E0"/>
    </person>
    <person id="52" depart="52.00">
        <walk edges="-E2 E1"/>
    </person>
    <person id="53" depart="53.00">
        <walk edges="-E0 -E3"/>
    </person>
    <person id="54" depart="54.00">
        <walk edges="-E3 E3"/>
    </person>
    <person id="55" depart="55.00">
        <walk edges="E3 -E2"/>
    </person>
    <person id="56" depart="56.00">
        <walk edges="E0 -E0 -E1"/>
    </person>
    <person id="57" depart="57.00">
        <walk edges="E3 E2"/>
    </person>
    <person id="58" depart="58.00">
        <walk edges="-E2 E1"/>
    </person>
    <person id="59" depart="59.00">
        <walk edges="E0 -E0 -E1"/>
    </person>
    <person id="60" depart="60.00">
        <walk edges="E2 E0"/>
    </person>
    <person id="61" depart="61.00">
        <walk edges="E2 E0"/>
    </person>
    <person id="62" depart="62.00">
        <walk edges="-E0 E2 -E2"/>
    </person>
    <person id="63" depart="63.00">
        <walk edges="-E0 E3"/>
    </person>
    <person id="64" depart="64.00">
        <walk edges="E3 E2"/>
    </person>
    <person id="65" depart="65.00">
        <walk edges="-E2 E2 -E0"/>
    </person>
    <person id="66" depart="66.00">
        <walk edges="E3"/>
    </person>
    <person id="67" depart="67.00">
        <walk edges="-E0 -E3"/>
    </person>
    <person id="68" depart="68.00">
        <walk edges="-E0 E2"/>
    </person>
    <person id="69" depart="69.00">
        <walk edges="E2 E1 -E1"/>
    </person>
    <person id="70" depart="70.00">
        <walk edges="-E3 -E0 E0"/>
    </person>
    <person id="71" depart="71.00">
        <walk edges="-E2 E2"/>
    </person>
    <person id="72" depart="72.00">
        <walk edges="-E3 E3 -E1"/>
    </person>
    <person id="73" depart="73.00">
        <walk edges="E0 E1"/>
    </person>
    <person id="74" depart="74.00">
        <walk edges="-E1 E1 -E2"/>
    </person>
    <person id="75" depart="75.00">
        <walk edges="E3 E1"/>
    </person>
    <person id="76" depart="76.00">
        <walk edges="-E3 -E0 E0"/>
    </person>
    <person id="77" depart="77.00">
        <walk edges="-E0 -E1"/>
    </person>
    <person id="78" depart="78.00">
        <walk edges="-E2 E2 E0"/>
    </person>
    <person id="79" depart="79.00">
        <walk edges="-E1"/>
    </person>
    <person id="80" depart="80.00">
        <walk edges="-E0 E1"/>
    </person>
    <person id="81" depart="81.00">
        <walk edges="-E1 E3"/>
    </person>
    <person id="82" depart="82.00">
        <walk edges="E2 -E0"/>
    </person>
    <person id="83" depart="83.00">
        <walk edges="-E1 E1"/>
    </person>
    <person id="84" depart="84.00">
        <walk edges="-E1"/>
    </person>
    <person id="85" depart="85.00">
        <walk edges="E3 -E0 E0"/>
    </person>
    <person id="86" depart="86.00">
        <walk edges="-E3 E2"/>
    </person>
    <person id="87" depart="87.00">
        <walk edges="E2 E1 -E1"/>
    </person>
    <person id="88" depart="88.00">
        <walk edges="-E0 -E3"/>
    </person>
    <person id="89" depart="89.00">
        <walk edges="-E3"/>
    </person>
    <person id="90" depart="90.00">
        <walk edges="E1"/>
    </person>
    <person id="91" depart="91.00">
        <walk edges="E3 -E0"/>
    </person>
    <person id="92" depart="92.00">
        <walk edges="-E3 E3 -E2"/>
    </person>
    <person id="93" depart="93.00">
        <walk edges="E2 E1 -E1"/>
    </person>
    <person id="94" depart="94.00">
        <walk edges="-E1 E3 -E3"/>
    </person>
    <person id="95" depart="95.00">
        <walk edges="-E3 E3 -E2"/>
    </person>
    <person id="96" depart="96.00">
        <walk edges="-E1 E3"/>
    </person>
    <person id="97" depart="97.00">
        <walk edges="-E3 E2"/>
    </person>
    <person id="98" depart="98.00">
        <walk edges="E0 -E0"/>
    </person>
    <person id="99" depart="99.00">
        <walk edges="E3 E2"/>
    </person>
    <person id="100" depart="100.00">
        <walk edges="E3"/>
    </person>
    <person id="101" depart="101.00">
        <walk edges="E2 E1 -E1"/>
    </person>
    <person id="102" depart="102.00">
        <walk edges="-E3 E3 -E1"/>
    </person>
    <person id="103" depart="103.00">
        <walk edges="-E3 -E0"/>
    </person>
    <person id="104" depart="104.00">
        <walk edges="-E3 E3"/>
    </person>
    <person id="105" depart="105.00">
        <walk edges="-E2 E2"/>
    </person>
    <person id="106" depart="106.00">
        <walk edges="-E3"/>
    </person>
    <person id="107" depart="107.00">
        <walk edges="E3"/>
    </person>
    <person id="108" depart="108.00">
        <walk edges="E0 E1"/>
    </person>
    <person id="109" depart="109.00">
        <walk edges="-E1 E1 -E2"/>
    </person>
    <person id="110" depart="110.00">
        <walk edges="E3 -E0 E0"/>
    </person>
    <person id="111" depart="111.00">
        <walk edges="E0 E1"/>
    </person>
    <person id="112" depart="112.00">
        <walk edges="-E0 E0"/>
    </person>
    <person id="113" depart="113.00">
        <walk edges="E0 E2"/>
    </person>
    <person id="114" depart="114.00">
        <walk edges="-E1 E3"/>
    </person>
    <person id="115" depart="115.00">
        <walk edges="-E0 -E1"/>
    </person>
    <person id="116" depart="116.00">
        <walk edges="E0 E1"/>
    </person>
    <person id="117" depart="117.00">
        <walk edges="-E1 -E0"/>
    </person>
    <person id="118" depart="118.00">
        <walk edges="E3 -E1"/>
    </person>
    <person id="119" depart="119.00">
        <walk edges="E0"/>
    </person>
    <person id="120" depart="120.00">
        <walk edges="-E3 -E0 E0"/>
    </person>
    <person id="121" depart="121.00">
        <walk edges="E0 -E0 E3"/>
    </person>
    <person id="122" depart="122.00">
        <walk edges="-E1 E1"/>
    </person>
    <person id="123" depart="123.00">
        <walk edges="-E1 E3 -E3"/>
    </person>
    <person id="124" depart="124.00">
        <walk edges="E1 -E2"/>
    </person>
    <person id="125" depart="125.00">
        <walk edges="-E2 E2"/>
    </person>
    <person id="126" depart="126.00">
        <walk edges="-E0 -E3"/>
    </person>
    <person id="127" depart="127.00">
        <walk edges="E3"/>
    </person>
    <person id="128" depart="128.00">
        <walk edges="-E0 -E1"/>
    </person>
    <person id="129" depart="129.00">
        <walk edges="-E2 E3"/>
    </person>
    <person id="130" depart="130.00">
        <walk edges="E3"/>
    </person>
    <person id="131" depart="131.00">
        <walk edges="-E2 E1 -E1"/>
    </person>
    <person id="132" depart="132.00">
        <walk edges="E2 E1"/>
    </person>
    <person id="133" depart="133.00">
        <walk edges="E0 -E0 E3"/>
    </person>
    <person id="134" depart="134.00">
        <walk edges="E1 -E0"/>
    </person>
    <person id="135" depart="135.00">
        <walk edges="E2 -E2"/>
    </person>
    <person id="136" depart="136.00">
        <walk edges="E1 E3"/>
    </person>
    <person id="137" depart="137.00">
        <walk edges="-E1 -E0"/>
    </person>
    <person id="138" depart="138.00">
        <walk edges="-E0 E0"/>
    </person>
    <person id="139" depart="139.00">
        <walk edges="-E2 E2 E0"/>
    </person>
    <person id="140" depart="140.00">
        <walk edges="E1 -E1"/>
    </person>
    <person id="141" depart="141.00">
        <walk edges="E1 -E2"/>
    </person>
    <person id="142" depart="142.00">
        <walk edges="-E3 E3"/>
    </person>
    <person id="143" depart="143.00">
        <walk edges="E2 -E0"/>
    </person>
    <person id="144" depart="144.00">
        <walk edges="-E3 E3 -E2"/>
    </person>
    <person id="145" depart="145.00">
        <walk edges="-E0 E2"/>
    </person>
    <person id="146" depart="146.00">
        <walk edges="E1 -E2"/>
    </person>
    <person id="147" depart="147.00">
        <walk edges="E1 E0"/>
    </person>
    <person id="148" depart="148.00">
        <walk edges="-E3 -E0"/>
    </person>
    <person id="149" depart="149.00">
        <walk edges="-E0 E3"/>
    </person>
    <person id="150" depart="150.00">
        <walk edges="E3 -E0 E0"/>
    </person>
    <person id="151" depart="151.00">
        <walk edges="E2 E0"/>
    </person>
    <person id="152" depart="152.00">
        <walk edges="-E1"/>
    </person>
    <person id="153" depart="153.00">
        <walk edges="-E2 E3"/>
    </person>
    <person id="154" depart="154.00">
        <walk edges="E2"/>
    </person>
    <person id="155" depart="155.00">
        <walk edges="E3 -E1"/>
    </person>
    <person id="156" depart="156.00">
        <walk edges="-E1 -E0"/>
    </person>
    <person id="157" depart="157.00">
        <walk edges="E2 E3"/>
    </person>
    <person id="158" depart="158.00">
        <walk edges="-E3 -E0 E0"/>
    </person>
    <person id="159" depart="159.00">
        <walk edges="-E1 E3"/>
    </person>
    <person id="160" depart="160.00">
        <walk edges="E2 E3"/>
    </person>
    <person id="161" depart="161.00">
        <walk edges="E2 E3"/>
    </person>
    <person id="162" depart="162.00">
        <walk edges="-E0 E1"/>
    </person>
    <person id="163" depart="163.00">
        <walk edges="-E2 E3"/>
    </person>
    <person id="164" depart="164.00">
        <walk edges="E2"/>
    </person>
    <person id="165" depart="165.00">
        <walk edges="E2 -E2"/>
    </person>
    <person id="166" depart="166.00">
        <walk edges="E2 -E0"/>
    </person>
    <person id="167" depart="167.00">
        <walk edges="E2"/>
    </person>
    <person id="168" depart="168.00">
        <walk edges="-E1 E1 E2"/>
    </person>
    <person id="169" depart="169.00">
        <walk edges="-E3 E3 -E2"/>
    </person>
    <person id="170" depart="170.00">
        <walk edges="E2 E1 -E1"/>
    </person>
    <person id="171" depart="171.00">
        <walk edges="-E0 -E1"/>
    </person>
    <person id="172" depart="172.00">
        <walk edges="-E2 E2"/>
    </person>
    <person id="173" depart="173.00">
        <walk edges="E3 -E2"/>
    </person>
    <person id="174" depart="174.00">
        <walk edges="E1 E3 -E3"/>
    </person>
    <person id="175" depart="175.00">
        <walk edges="E3 -E0 E0"/>
    </person>
    <person id="176" depart="176.00">
        <walk edges="E3 -E0"/>
    </person>
    <person id="177" depart="177.00">
        <walk edges="E3 -E1"/>
    </person>
    <person id="178" depart="178.00">
        <walk edges="E3 -E2"/>
    </person>
    <person id="179" depart="179.00">
        <walk edges="-E0 -E3"/>
    </person>
    <person id="180" depart="180.00">
        <walk edges="E1 -E2"/>
    </person>
    <person id="181" depart="181.00">
        <walk edges="E0"/>
    </person>
    <person id="182" depart="182.00">
        <walk edges="-E3 -E0 E0"/>
    </person>
    <person id="183" depart="183.00">
        <walk edges="-E2 E1"/>
    </person>
    <person id="184" depart="184.00">
        <walk edges="-E0 E3"/>
    </person>
    <person id="185" depart="185.00">
        <walk edges="E0 E1"/>
    </person>
    <person id="186" depart="186.00">
        <walk edges="E1"/>
    </person>
    <person id="187" depart="187.00">
        <walk edges="-E2 E2 -E0"/>
    </person>
    <person id="188" depart="188.00">
        <walk edges="E1 -E2"/>
    </person>
    <person id="189" depart="189.00">
        <walk edges="-E2 E2"/>
    </person>
    <person id="190" depart="190.00">
        <walk edges="E1 -E2"/>
    </person>
    <person id="191" depart="191.00">
        <walk edges="-E2 E2 -E3"/>
    </person>
    <person id="192" depart="192.00">
        <walk edges="-E3 E3 -E2"/>
    </person>
    <person id="193" depart="193.00">
        <walk edges="-E1 E3 -E3"/>
    </person>
    <person id="194" depart="194.00">
        <walk edges="E3 E1"/>
    </person>
    <person id="195" depart="195.00">
        <walk edges="E3 -E0 E0"/>
    </person>
    <person id="196" depart="196.00">
        <walk edges="-E2 E2 E0"/>
    </person>
    <person id="197" depart="197.00">
        <walk edges="-E0 E2 -E2"/>
    </person>
    <person id="198" depart="198.00">
        <walk edges="-E3 -E0 E0"/>
    </person>
    <person id="199" depart="199.00">
        <walk edges="E1 E3 -E3"/>
    </person>
    <person id="200" depart="200.00">
        <walk edges="-E3 E3 -E1"/>
    </person>
    <person id="201" depart="201.00">
        <walk edges="-E3 E3"/>
    </person>
    <person id="202" depart="202.00">
        <walk edges="E2 E1 -E1"/>
    </person>
    <person id="203" depart="203.00">
        <walk edges="-E0 E0"/>
    </person>
    <person id="204" depart="204.00">
        <walk edges="E1 -E2"/>
    </person>
    <person id="205" depart="205.00">
        <walk edges="E2"/>
    </person>
    <person id="206" depart="206.00">
        <walk edges="E1 -E1"/>
    </person>
    <person id="207" depart="207.00">
        <walk edges="-E1 -E0"/>
    </person>
    <person id="208" depart="208.00">
        <walk edges="-E1 E3 -E3"/>
    </person>
    <person id="209" depart="209.00">
        <walk edges="E2 -E0"/>
    </person>
    <person id="210" depart="210.00">
        <walk edges="-E3 E3 E1"/>
    </person>
    <person id="211" depart="211.00">
        <walk edges="-E1 E1"/>
    </person>
    <person id="212" depart="212.00">
        <walk edges="-E3 E3 -E1"/>
    </person>
    <person id="213" depart="213.00">
        <walk edges="E1 -E0"/>
    </person>
    <person id="214" depart="214.00">
        <walk edges="E2"/>
    </person>
    <person id="215" depart="215.00">
        <walk edges="-E0 -E3"/>
    </person>
    <person id="216" depart="216.00">
        <walk edges="-E1 E3"/>
    </person>
    <person id="217" depart="217.00">
        <walk edges="E0 -E0"/>
    </person>
    <person id="218" depart="218.00">
        <walk edges="-E1 E1 E2"/>
    </person>
    <person id="219" depart="219.00">
        <walk edges="-E3 E2"/>
    </person>
    <person id="220" depart="220.00">
        <walk edges="E1 E3"/>
    </person>
    <person id="221" depart="221.00">
        <walk edges="E0 -E0 E3"/>
    </person>
    <person id="222" depart="222.00">
        <walk edges="E3 -E0 E0"/>
    </person>
    <person id="223" depart="223.00">
        <walk edges="E1 E0"/>
    </person>
    <person id="224" depart="224.00">
        <walk edges="E2 E0"/>
    </person>
    <person id="225" depart="225.00">
        <walk edges="E3 E1"/>
    </person>
    <person id="226" depart="226.00">
        <walk edges="-E3 E3 -E2"/>
    </person>
    <person id="227" depart="227.00">
        <walk edges="-E1 E1"/>
    </person>
    <person id="228" depart="228.00">
        <walk edges="E2 E0"/>
    </person>
    <person id="229" depart="229.00">
        <walk edges="E1 -E2"/>
    </person>
    <person id="230" depart="230.00">
        <walk edges="-E0 E2 -E2"/>
    </person>
    <person id="231" depart="231.00">
        <walk edges="-E2"/>
    </person>
    <person id="232" depart="232.00">
        <walk edges="E0 -E0 -E1"/>
    </person>
    <person id="233" depart="233.00">
        <walk edges="-E1 E1"/>
    </person>
    <person id="234" depart="234.00">
        <walk edges="E1 -E0"/>
    </person>
    <person id="235" depart="235.00">
        <walk edges="-E3 -E0 E0"/>
    </person>
    <person id="236" depart="236.00">
        <walk edges="-E3 E3 -E1"/>
    </person>
    <person id="237" depart="237.00">
        <walk edges="-E3 E3"/>
    </person>
    <person id="238" depart="238.00">
        <walk edges="E0 E1"/>
    </person>
    <person id="239" depart="239.00">
        <walk edges="E2"/>
    </person>
    <person id="240" depart="240.00">
        <walk edges="-E3 -E0"/>
    </person>
    <person id="241" depart="241.00">
        <walk edges="-E2 E2"/>
    </person>
    <person id="242" depart="242.00">
        <walk edges="E2 E3"/>
    </person>
    <person id="243" depart="243.00">
        <walk edges="-E3 E3 E1"/>
    </person>
    <person id="244" depart="244.00">
        <walk edges="E0"/>
    </person>
    <person id="245" depart="245.00">
        <walk edges="-E1"/>
    </person>
    <person id="246" depart="246.00">
        <walk edges="-E3 -E0"/>
    </person>
    <person id="247" depart="247.00">
        <walk edges="-E2 E1"/>
    </person>
    <person id="248" depart="248.00">
        <walk edges="-E3 E3 -E1"/>
    </person>
    <person id="249" depart="249.00">
        <walk edges="-E3 E3 -E1"/>
    </person>
    <person id="250" depart="250.00">
        <walk edges="E0 -E0"/>
    </person>
    <person id="251" depart="251.00">
        <walk edges="-E3 -E0 E0"/>
    </person>
    <person id="252" depart="252.00">
        <walk edges="-E0 E1"/>
    </person>
    <person id="253" depart="253.00">
        <walk edges="-E1 E3 -E3"/>
    </person>
    <person id="254" depart="254.00">
        <walk edges="-E0 -E3"/>
    </person>
    <person id="255" depart="255.00">
        <walk edges="-E1 E1 -E2"/>
    </person>
    <person id="256" depart="256.00">
        <walk edges="E2 -E3"/>
    </person>
    <person id="257" depart="257.00">
        <walk edges="E2"/>
    </person>
    <person id="258" depart="258.00">
        <walk edges="-E2 E2 -E0"/>
    </person>
    <person id="259" depart="259.00">
        <walk edges="-E0 E0"/>
    </person>
    <person id="260" depart="260.00">
        <walk edges="E3 -E2"/>
    </person>
    <person id="261" depart="261.00">
        <walk edges="E1 E2"/>
    </person>
    <person id="262" depart="262.00">
        <walk edges="E1 E2"/>
    </person>
    <person id="263" depart="263.00">
        <walk edges="E3 -E1"/>
    </person>
    <person id="264" depart="264.00">
        <walk edges="-E0 -E1"/>
    </person>
    <person id="265" depart="265.00">
        <walk edges="-E1 E1"/>
    </person>
    <person id="266" depart="266.00">
        <walk edges="E0 -E0 -E1"/>
    </person>
    <person id="267" depart="267.00">
        <walk edges="E1 E2"/>
    </person>
    <person id="268" depart="268.00">
        <walk edges="-E1 E1 E0"/>
    </person>
    <person id="269" depart="269.00">
        <walk edges="E1 -E0"/>
    </person>
    <person id="270" depart="270.00">
        <walk edges="E2 E3"/>
    </person>
    <person id="271" depart="271.00">
        <walk edges="-E0"/>
    </person>
    <person id="272" depart="272.00">
        <walk edges="-E2 E1"/>
    </person>
    <person id="273" depart="273.00">
        <walk edges="E3 -E3"/>
    </person>
    <person id="274" depart="274.00">
        <walk edges="E1 -E0"/>
    </person>
    <person id="275" depart="275.00">
        <walk edges="E1"/>
    </person>
    <person id="276" depart="276.00">
        <walk edges="-E0 E2"/>
    </person>
    <person id="277" depart="277.00">
        <walk edges="E2 E0"/>
    </person>
    <person id="278" depart="278.00">
        <walk edges="-E0 E3"/>
    </person>
    <person id="279" depart="279.00">
        <walk edges="E2 -E2"/>
    </person>
    <person id="280" depart="280.00">
        <walk edges="-E3 E3 -E2"/>
    </person>
    <person id="281" depart="281.00">
        <walk edges="E0 E2 -E2"/>
    </person>
    <person id="282" depart="282.00">
        <walk edges="E2"/>
    </person>
    <person id="283" depart="283.00">
        <walk edges="-E0 E3"/>
    </person>
    <person id="284" depart="284.00">
        <walk edges="E1 E2"/>
    </person>
    <person id="285" depart="285.00">
        <walk edges="E1 E3 -E3"/>
    </person>
    <person id="286" depart="286.00">
        <walk edges="E1 E3"/>
    </person>
    <person id="287" depart="287.00">
        <walk edges="-E2 E2"/>
    </person>
    <person id="288" depart="288.00">
        <walk edges="E0 -E0 -E3"/>
    </person>
    <person id="289" depart="289.00">
        <walk edges="-E3 E3 E1"/>
    </person>
    <person id="290" depart="290.00">
        <walk edges="-E2 E2"/>
    </person>
    <person id="291" depart="291.00">
        <walk edges="E2 -E0"/>
    </person>
    <person id="292" depart="292.00">
        <walk edges="E3 -E1"/>
    </person>
    <person id="293" depart="293.00">
        <walk edges="-E3 -E0 E0"/>
    </person>
    <person id="294" depart="294.00">
        <walk edges="-E3 -E0"/>
    </person>
    <person id="295" depart="295.00">
        <walk edges="E2 E1 -E1"/>
    </person>
    <person id="296" depart="296.00">
        <walk edges="-E1 E1 E2"/>
    </person>
    <person id="297" depart="297.00">
        <walk edges="-E2 E3"/>
    </person>
    <person id="298" depart="298.00">
        <walk edges="E1 -E2"/>
    </person>
    <person id="299" depart="299.00">
        <walk edges="-E0 E3"/>
    </person>
    <person id="300" depart="300.00">
        <walk edges="-E0 E1"/>
    </person>
    <person id="301" depart="301.00">
        <walk edges="-E3 E2"/>
    </person>
    <person id="302" depart="302.00">
        <walk edges="E1"/>
    </person>
    <person id="303" depart="303.00">
        <walk edges="-E3 E2"/>
    </person>
    <person id="304" depart="304.00">
        <walk edges="-E0 -E1"/>
    </person>
    <person id="305" depart="305.00">
        <walk edges="E1 -E2"/>
    </person>
    <person id="306" depart="306.00">
        <walk edges="E0 -E0 -E3"/>
    </person>
    <person id="307" depart="307.00">
        <walk edges="E0 -E0 -E3"/>
    </person>
    <person id="308" depart="308.00">
        <walk edges="E1 -E2"/>
    </person>
    <person id="309" depart="309.00">
        <walk edges="E1 -E2"/>
    </person>
    <person id="310" depart="310.00">
        <walk edges="-E2 E2 -E0"/>
    </person>
    <person id="311" depart="311.00">
        <walk edges="-E1 -E0"/>
    </person>
    <person id="312" depart="312.00">
        <walk edges="E0 E2"/>
    </person>
    <person id="313" depart="313.00">
        <walk edges="-E1"/>
    </person>
    <person id="314" depart="314.00">
        <walk edges="-E3 E3 E1"/>
    </person>
    <person id="315" depart="315.00">
        <walk edges="E3 -E0 E0"/>
    </person>
    <person id="316" depart="316.00">
        <walk edges="-E2 E2 -E0"/>
    </person>
    <person id="317" depart="317.00">
        <walk edges="-E1"/>
    </person>
    <person id="318" depart="318.00">
        <walk edges="-E1 -E0"/>
    </person>
    <person id="319" depart="319.00">
        <walk edges="E0 E2 -E2"/>
    </person>
    <person id="320" depart="320.00">
        <walk edges="E3 -E0 E0"/>
    </person>
    <person id="321" depart="321.00">
        <walk edges="E1 -E1"/>
    </person>
    <person id="322" depart="322.00">
        <walk edges="E2 -E3"/>
    </person>
    <person id="323" depart="323.00">
        <walk edges="E2 E0"/>
    </person>
    <person id="324" depart="324.00">
        <walk edges="-E3"/>
    </person>
    <person id="325" depart="325.00">
        <walk edges="-E1 -E0"/>
    </person>
    <person id="326" depart="326.00">
        <walk edges="E3 -E3"/>
    </person>
    <person id="327" depart="327.00">
        <walk edges="E2 -E3"/>
    </person>
    <person id="328" depart="328.00">
        <walk edges="-E0 E1"/>
    </person>
    <person id="329" depart="329.00">
        <walk edges="-E0 -E1"/>
    </person>
    <person id="330" depart="330.00">
        <walk edges="E0 E2 -E2"/>
    </person>
    <person id="331" depart="331.00">
        <walk edges="E3 -E0"/>
    </person>
    <person id="332" depart="332.00">
        <walk edges="E2 E0"/>
    </person>
    <person id="333" depart="333.00">
        <walk edges="E2 E1 -E1"/>
    </person>
    <person id="334" depart="334.00">
        <walk edges="E0 -E0 -E3"/>
    </person>
    <person id="335" depart="335.00">
        <walk edges="-E3 E2"/>
    </person>
    <person id="336" depart="336.00">
        <walk edges="E3 -E2"/>
    </person>
    <person id="337" depart="337.00">
        <walk edges="E0"/>
    </person>
    <person id="338" depart="338.00">
        <walk edges="E1 E3"/>
    </person>
    <person id="339" depart="339.00">
        <walk edges="-E1"/>
    </person>
    <person id="340" depart="340.00">
        <walk edges="E1 -E1"/>
    </person>
    <person id="341" depart="341.00">
        <walk edges="-E1 -E0"/>
    </person>
    <person id="342" depart="342.00">
        <walk edges="-E0 -E3"/>
    </person>
    <person id="343" depart="343.00">
        <walk edges="E0 E2 -E2"/>
    </person>
    <person id="344" depart="344.00">
        <walk edges="-E1 E1"/>
    </person>
    <person id="345" depart="345.00">
        <walk edges="E1 E3 -E3"/>
    </person>