<?xml version="1.0" encoding="UTF-8"?>

<!-- generated on 2022-10-14 21:56:33 by Eclipse SUMO netedit Version 1.14.1
<configuration xmlns:xsi="http://www.w3.org/2001/XMLSchema-instance" xsi:noNamespaceSchemaLocation="http://sumo.dlr.de/xsd/netconvertConfiguration.xsd">

    <input>
        <sumo-net-file value="D:\STEMS\simple.net.xml"/>
    </input>

    <output>
        <output-file value="D:\STEMS\simple.net.xml"/>
    </output>

    <processing>
        <geometry.min-radius.fix.railways value="false"/>
        <geometry.max-grade.fix value="false"/>
        <offset.disable-normalization value="true"/>
        <lefthand value="false"/>
    </processing>

    <junctions>
        <no-turnarounds value="true"/>
        <junctions.corner-detail value="5"/>
        <junctions.limit-turn-speed value="5.5"/>
        <rectangular-lane-cut value="false"/>
    </junctions>

    <pedestrian>
        <walkingareas value="false"/>
    </pedestrian>

</configuration>
-->

<net version="1.9" junctionCornerDetail="5" limitTurnSpeed="5.50" xmlns:xsi="http://www.w3.org/2001/XMLSchema-instance" xsi:noNamespaceSchemaLocation="http://sumo.dlr.de/xsd/net_file.xsd">

    <location netOffset="0.00,0.00" convBoundary="-500.00,-500.00,500.00,500.00" origBoundary="-10000000000.00,-10000000000.00,10000000000.00,10000000000.00" projParameter="!"/>

    <edge id=":J1_0" function="internal">
        <lane id=":J1_0_0" index="0" disallow="pedestrian" speed="6.51" length="9.03" shape="-4.80,10.40 -5.15,7.95 -6.20,6.20 -7.95,5.15 -10.40,4.80"/>
    </edge>
    <edge id=":J1_1" function="internal">
        <lane id=":J1_1_0" index="0" disallow="pedestrian" speed="13.89" length="20.80" shape="-4.80,10.40 -4.80,-10.40"/>
        <lane id=":J1_1_1" index="1" disallow="pedestrian" speed="13.89" length="20.80" shape="-1.60,10.40 -1.60,-10.40"/>
    </edge>
    <edge id=":J1_3" function="internal">
        <lane id=":J1_3_0" index="0" disallow="pedestrian" speed="9.26" length="5.01" shape="-1.60,10.40 -0.89,5.44"/>
    </edge>
    <edge id=":J1_4" function="internal">
        <lane id=":J1_4_0" index="0" disallow="pedestrian" speed="3.65" length="1.44" shape="-1.60,10.40 -0.80,9.20"/>
    </edge>
    <edge id=":J1_20" function="internal">
        <lane id=":J1_20_0" index="0" disallow="pedestrian" speed="9.26" length="14.34" shape="-0.89,5.44 -0.85,5.15 1.40,1.40 5.15,-0.85 10.40,-1.60"/>
    </edge>
    <edge id=":J1_21" function="internal">
        <lane id=":J1_21_0" index="0" disallow="pedestrian" speed="3.65" length="3.23" shape="-0.80,9.20 0.00,8.80 0.80,9.20 1.60,10.40"/>
    </edge>
    <edge id=":J1_5" function="internal">
        <lane id=":J1_5_0" index="0" disallow="pedestrian" speed="6.51" length="9.03" shape="10.40,4.80 7.95,5.15 6.20,6.20 5.15,7.95 4.80,10.40"/>
    </edge>
    <edge id=":J1_6" function="internal">
        <lane id=":J1_6_0" index="0" disallow="pedestrian" speed="13.89" length="20.80" shape="10.40,4.80 -10.40,4.80"/>
        <lane id=":J1_6_1" index="1" disallow="pedestrian" speed="13.89" length="20.80" shape="10.40,1.60 -10.40,1.60"/>
    </edge>
    <edge id=":J1_8" function="internal">
        <lane id=":J1_8_0" index="0" disallow="pedestrian" speed="9.26" length="5.01" shape="10.40,1.60 5.44,0.89"/>
    </edge>
    <edge id=":J1_9" function="internal">
        <lane id=":J1_9_0" index="0" disallow="pedestrian" speed="3.65" length="1.44" shape="10.40,1.60 9.20,0.80"/>
    </edge>
    <edge id=":J1_22" function="internal">
        <lane id=":J1_22_0" index="0" disallow="pedestrian" speed="9.26" length="14.34" shape="5.44,0.89 5.15,0.85 1.40,-1.40 -0.85,-5.15 -1.60,-10.40"/>
    </edge>
    <edge id=":J1_23" function="internal">
        <lane id=":J1_23_0" index="0" disallow="pedestrian" speed="3.65" length="3.23" shape="9.20,0.80 8.80,-0.00 9.20,-0.80 10.40,-1.60"/>
    </edge>
    <edge id=":J1_10" function="internal">
        <lane id=":J1_10_0" index="0" disallow="pedestrian" speed="6.51" length="9.03" shape="4.80,-10.40 5.15,-7.95 6.20,-6.20 7.95,-5.15 10.40,-4.80"/>
    </edge>
    <edge id=":J1_11" function="internal">
        <lane id=":J1_11_0" index="0" disallow="pedestrian" speed="13.89" length="20.80" shape="4.80,-10.40 4.80,10.40"/>
        <lane id=":J1_11_1" index="1" disallow="pedestrian" speed="13.89" length="20.80" shape="1.60,-10.40 1.60,10.40"/>
    </edge>
    <edge id=":J1_13" function="internal">
        <lane id=":J1_13_0" index="0" disallow="pedestrian" speed="9.26" length="5.01" shape="1.60,-10.40 0.89,-5.44"/>
    </edge>
    <edge id=":J1_14" function="internal">
        <lane id=":J1_14_0" index="0" disallow="pedestrian" speed="3.65" length="1.44" shape="1.60,-10.40 0.80,-9.20"/>
    </edge>
    <edge id=":J1_24" function="internal">
        <lane id=":J1_24_0" index="0" disallow="pedestrian" speed="9.26" length="14.34" shape="0.89,-5.44 0.85,-5.15 -1.40,-1.40 -5.15,0.85 -10.40,1.60"/>
    </edge>
    <edge id=":J1_25" function="internal">
        <lane id=":J1_25_0" index="0" disallow="pedestrian" speed="3.65" length="3.23" shape="0.80,-9.20 -0.00,-8.80 -0.80,-9.20 -1.60,-10.40"/>
    </edge>
    <edge id=":J1_15" function="internal">
        <lane id=":J1_15_0" index="0" disallow="pedestrian" speed="6.51" length="9.03" shape="-10.40,-4.80 -7.95,-5.15 -6.20,-6.20 -5.15,-7.95 -4.80,-10.40"/>
    </edge>
    <edge id=":J1_16" function="internal">
        <lane id=":J1_16_0" index="0" disallow="pedestrian" speed="13.89" length="20.80" shape="-10.40,-4.80 10.40,-4.80"/>
        <lane id=":J1_16_1" index="1" disallow="pedestrian" speed="13.89" length="20.80" shape="-10.40,-1.60 10.40,-1.60"/>
    </edge>
    <edge id=":J1_18" function="internal">
        <lane id=":J1_18_0" index="0" disallow="pedestrian" speed="9.26" length="5.01" shape="-10.40,-1.60 -5.44,-0.89"/>
    </edge>
    <edge id=":J1_19" function="internal">
        <lane id=":J1_19_0" index="0" disallow="pedestrian" speed="3.65" length="1.44" shape="-10.40,-1.60 -9.20,-0.80"/>
    </edge>
    <edge id=":J1_26" function="internal">
        <lane id=":J1_26_0" index="0" disallow="pedestrian" speed="9.26" length="14.34" shape="-5.44,-0.89 -5.15,-0.85 -1.40,1.40 0.85,5.15 1.60,10.40"/>
    </edge>
    <edge id=":J1_27" function="internal">
        <lane id=":J1_27_0" index="0" disallow="pedestrian" speed="3.65" length="3.23" shape="-9.20,-0.80 -8.80,0.00 -9.20,0.80 -10.40,1.60"/>
    </edge>

    <edge id="-E0" from="J1" to="J0" priority="-1">
        <lane id="-E0_0" index="0" disallow="pedestrian" speed="13.89" length="489.60" shape="-10.40,4.80 -500.00,4.80"/>
        <lane id="-E0_1" index="1" disallow="pedestrian" speed="13.89" length="489.60" shape="-10.40,1.60 -500.00,1.60"/>
    </edge>
    <edge id="-E1" from="J2" to="J1" priority="-1">
        <lane id="-E1_0" index="0" disallow="pedestrian" speed="13.89" length="489.60" shape="500.00,4.80 10.40,4.80"/>
        <lane id="-E1_1" index="1" disallow="pedestrian" speed="13.89" length="489.60" shape="500.00,1.60 10.40,1.60"/>
    </edge>
    <edge id="-E2" from="J3" to="J1" priority="-1">
        <lane id="-E2_0" index="0" disallow="pedestrian" speed="13.89" length="489.60" shape="4.80,-500.00 4.80,-10.40"/>
        <lane id="-E2_1" index="1" disallow="pedestrian" speed="13.89" length="489.60" shape="1.60,-500.00 1.60,-10.40"/>
    </edge>
    <edge id="-E3" from="J4" to="J1" priority="-1">
        <lane id="-E3_0" index="0" disallow="pedestrian" speed="13.89" length="489.60" shape="-4.80,500.00 -4.80,10.40"/>
        <lane id="-E3_1" index="1" disallow="pedestrian" speed="13.89" length="489.60" shape="-1.60,500.00 -1.60,10.40"/>
    </edge>
    <edge id="E0" from="J0" to="J1" priority="-1">
        <lane id="E0_0" index="0" disallow="pedestrian" speed="13.89" length="489.60" shape="-500.00,-4.80 -10.40,-4.80"/>
        <lane id="E0_1" index="1" disallow="pedestrian" speed="13.89" length="489.60" shape="-500.00,-1.60 -10.40,-1.60"/>
    </edge>
    <edge id="E1" from="J1" to="J2" priority="-1">
        <lane id="E1_0" index="0" disallow="pedestrian" speed="13.89" length="489.60" shape="10.40,-4.80 500.00,-4.80"/>
        <lane id="E1_1" index="1" disallow="pedestrian" speed="13.89" length="489.60" shape="10.40,-1.60 500.00,-1.60"/>
    </edge>
    <edge id="E2" from="J1" to="J3" priority="-1">
        <lane id="E2_0" index="0" disallow="pedestrian" speed="13.89" length="489.60" shape="-4.80,-10.40 -4.80,-500.00"/>
        <lane id="E2_1" index="1" disallow="pedestrian" speed="13.89" length="489.60" shape="-1.60,-10.40 -1.60,-500.00"/>
    </edge>
    <edge id="E3" from="J1" to="J4" priority="-1">
        <lane id="E3_0" index="0" disallow="pedestrian" speed="13.89" length="489.60" shape="4.80,10.40 4.80,500.00"/>
        <lane id="E3_1" index="1" disallow="pedestrian" speed="13.89" length="489.60" shape="1.60,10.40 1.60,500.00"/>
    </edge>

    <tlLogic id="J1" type="static" programID="0" offset="0">
        <phase duration="42" state="GGGggrrrrrGGGggrrrrr"/>
        <phase duration="3"  state="yyyyyrrrrryyyyyrrrrr"/>
        <phase duration="42" state="rrrrrGGGggrrrrrGGGgg"/>
        <phase duration="3"  state="rrrrryyyyyrrrrryyyyy"/>
    </tlLogic>

    <junction id="J0" type="dead_end" x="-500.00" y="0.00" incLanes="-E0_0 -E0_1" intLanes="" shape="-500.00,0.00 -500.00,6.40 -500.00,0.00"/>
    <junction id="J1" type="traffic_light" x="0.00" y="0.00" incLanes="-E3_0 -E3_1 -E1_0 -E1_1 -E2_0 -E2_1 E0_0 E0_1" intLanes=":J1_0_0 :J1_1_0 :J1_1_1 :J1_20_0 :J1_21_0 :J1_5_0 :J1_6_0 :J1_6_1 :J1_22_0 :J1_23_0 :J1_10_0 :J1_11_0 :J1_11_1 :J1_24_0 :J1_25_0 :J1_15_0 :J1_16_0 :J1_16_1 :J1_26_0 :J1_27_0" shape="-6.40,10.40 6.40,10.40 6.84,8.18 7.40,7.40 8.18,6.84 9.18,6.51 10.40,6.40 10.40,-6.40 8.18,-6.84 7.40,-7.40 6.84,-8.18 6.51,-9.18 6.40,-10.40 -6.40,-10.40 -6.84,-8.18 -7.40,-7.40 -8.18,-6.84 -9.18,-6.51 -10.40,-6.40 -10.40,6.40 -8.18,6.84 -7.40,7.40 -6.84,8.18 -6.51,9.18">
        <request index="0"  response="00000000000000000000" foes="00000000000011000000" cont="0"/>
        <request index="1"  response="01000000000100000000" foes="01111110000111000000" cont="0"/>
        <request index="2"  response="01000000000100000000" foes="01111110000111000000" cont="0"/>
        <request index="3"  response="01000001100100000000" foes="01110001101111000000" cont="1"/>
        <request index="4"  response="01000001100000000000" foes="01000001100000000000" cont="1"/>
        <request index="5"  response="00000001100000000000" foes="00000001100000000000" cont="0"/>
        <request index="6"  response="00000011100000001111" foes="11000011100000001111" cont="0"/>
        <request index="7"  response="00000011100000001111" foes="11000011100000001111" cont="0"/>
        <request index="8"  response="00110011100000001110" foes="00110111100000001110" cont="1"/>
        <request index="9"  response="00110000000000001000" foes="00110000000000001000" cont="1"/>
        <request index="10" response="00000000000000000000" foes="00110000000000000000" cont="0"/>
        <request index="11" response="01000000000100000000" foes="01110000000111111000" cont="0"/>
        <request index="12" response="01000000000100000000" foes="01110000000111111000" cont="0"/>
        <request index="13" response="01000000000100000110" foes="11110000000111000110" cont="1"/>
        <request index="14" response="00000000000100000110" foes="00000000000100000110" cont="1"/>
        <request index="15" response="00000000000000000110" foes="00000000000000000110" cont="0"/>
        <request index="16" response="00000011110000001110" foes="00000011111100001110" cont="0"/>
        <request index="17" response="00000011110000001110" foes="00000011111100001110" cont="0"/>
        <request index="18" response="00000011100011001110" foes="00000011100011011110" cont="1"/>
        <request index="19" response="00000010000011000000" foes="00000010000011000000" cont="1"/>
    </junction>
    <junction id="J2" type="dead_end" x="500.00" y="0.00" incLanes="E1_0 E1_1" intLanes="" shape="500.00,0.00 500.00,-6.40 500.00,0.00"/>
    <junction id="J3" type="dead_end" x="0.00" y="-500.00" incLanes="E2_0 E2_1" intLanes="" shape="0.00,-500.00 -6.40,-500.00 0.00,-500.00"/>
    <junction id="J4" type="dead_end" x="0.00" y="500.00" incLanes="E3_0 E3_1" intLanes="" shape="0.00,500.00 6.40,500.00 0.00,500.00"/>

    <junction id=":J1_20_0" type="internal" x="-0.89" y="5.44" incLanes=":J1_3_0 -E2_0 -E2_1" intLanes=":J1_6_0 :J1_6_1 :J1_8_0 :J1_9_0 :J1_10_0 :J1_11_0 :J1_11_1 :J1_16_0 :J1_16_1 :J1_18_0"/>
    <junction id=":J1_21_0" type="internal" x="-0.80" y="9.20" incLanes=":J1_4_0 -E1_0 -E2_0 -E2_1 E0_1" intLanes=":J1_5_0 :J1_11_0 :J1_11_1 :J1_18_0"/>
    <junction id=":J1_22_0" type="internal" x="5.44" y="0.89" incLanes=":J1_8_0 E0_0 E0_1" intLanes=":J1_1_0 :J1_1_1 :J1_3_0 :J1_11_0 :J1_11_1 :J1_13_0 :J1_14_0 :J1_15_0 :J1_16_0 :J1_16_1"/>
    <junction id=":J1_23_0" type="internal" x="9.20" y="0.80" incLanes=":J1_9_0 -E2_0 -E3_1 E0_0 E0_1" intLanes=":J1_3_0 :J1_10_0 :J1_16_0 :J1_16_1"/>
    <junction id=":J1_24_0" type="internal" x="0.89" y="-5.44" incLanes=":J1_13_0 -E3_0 -E3_1" intLanes=":J1_0_0 :J1_1_0 :J1_1_1 :J1_6_0 :J1_6_1 :J1_8_0 :J1_16_0 :J1_16_1 :J1_18_0 :J1_19_0"/>
    <junction id=":J1_25_0" type="internal" x="0.80" y="-9.20" incLanes=":J1_14_0 -E1_1 -E3_0 -E3_1 E0_0" intLanes=":J1_1_0 :J1_1_1 :J1_8_0 :J1_15_0"/>
    <junction id=":J1_26_0" type="internal" x="-5.44" y="-0.89" incLanes=":J1_18_0 -E1_0 -E1_1" intLanes=":J1_1_0 :J1_1_1 :J1_3_0 :J1_4_0 :J1_5_0 :J1_6_0 :J1_6_1 :J1_11_0 :J1_11_1 :J1_13_0"/>
    <junction id=":J1_27_0" type="internal" x="-9.20" y="-0.80" incLanes=":J1_19_0 -E1_0 -E1_1 -E2_1 -E3_0" intLanes=":J1_0_0 :J1_6_0 :J1_6_1 :J1_13_0"/>

    <connection from="-E1" to="E3" fromLane="0" toLane="0" via=":J1_5_0" tl="J1" linkIndex="5" dir="r" state="o"/>
    <connection from="-E1" to="-E0" fromLane="0" toLane="0" via=":J1_6_0" tl="J1" linkIndex="6" dir="s" state="o"/>
    <connection from="-E1" to="-E0" fromLane="1" toLane="1" via=":J1_6_1" tl="J1" linkIndex="7" dir="s" state="o"/>
    <connection from="-E1" to="E2" fromLane="1" toLane="1" via=":J1_8_0" tl="J1" linkIndex="8" dir="l" state="o"/>
    <connection from="-E1" to="E1" fromLane="1" toLane="1" via=":J1_9_0" tl="J1" linkIndex="9" dir="t" state="o"/>
    <connection from="-E2" to="E1" fromLane="0" toLane="0" via=":J1_10_0" tl="J1" linkIndex="10" dir="r" state="O"/>
    <connection from="-E2" to="E3" fromLane="0" toLane="0" via=":J1_11_0" tl="J1" linkIndex="11" dir="s" state="O"/>
    <connection from="-E2" to="E3" fromLane="1" toLane="1" via=":J1_11_1" tl="J1" linkIndex="12" dir="s" state="O"/>
    <connection from="-E2" to="-E0" fromLane="1" toLane="1" via=":J1_13_0" tl="J1" linkIndex="13" dir="l" state="o"/>
    <connection from="-E2" to="E2" fromLane="1" toLane="1" via=":J1_14_0" tl="J1" linkIndex="14" dir="t" state="o"/>
    <connection from="-E3" to="-E0" fromLane="0" toLane="0" via=":J1_0_0" tl="J1" linkIndex="0" dir="r" state="O"/>
    <connection from="-E3" to="E2" fromLane="0" toLane="0" via=":J1_1_0" tl="J1" linkIndex="1" dir="s" state="O"/>
    <connection from="-E3" to="E2" fromLane="1" toLane="1" via=":J1_1_1" tl="J1" linkIndex="2" dir="s" state="O"/>
    <connection from="-E3" to="E1" fromLane="1" toLane="1" via=":J1_3_0" tl="J1" linkIndex="3" dir="l" state="o"/>
    <connection from="-E3" to="E3" fromLane="1" toLane="1" via=":J1_4_0" tl="J1" linkIndex="4" dir="t" state="o"/>
    <connection from="E0" to="E2" fromLane="0" toLane="0" via=":J1_15_0" tl="J1" linkIndex="15" dir="r" state="o"/>
    <connection from="E0" to="E1" fromLane="0" toLane="0" via=":J1_16_0" tl="J1" linkIndex="16" dir="s" state="o"/>
    <connection from="E0" to="E1" fromLane="1" toLane="1" via=":J1_16_1" tl="J1" linkIndex="17" dir="s" state="o"/>
    <connection from="E0" to="E3" fromLane="1" toLane="1" via=":J1_18_0" tl="J1" linkIndex="18" dir="l" state="o"/>
    <connection from="E0" to="-E0" fromLane="1" toLane="1" via=":J1_19_0" tl="J1" linkIndex="19" dir="t" state="o"/>

    <connection from=":J1_0" to="-E0" fromLane="0" toLane="0" dir="r" state="M"/>
    <connection from=":J1_1" to="E2" fromLane="0" toLane="0" dir="s" state="M"/>
    <connection from=":J1_1" to="E2" fromLane="1" toLane="1" dir="s" state="M"/>
    <connection from=":J1_3" to="E1" fromLane="0" toLane="1" via=":J1_20_0" dir="l" state="m"/>
    <connection from=":J1_20" to="E1" fromLane="0" toLane="1" dir="l" state="M"/>
    <connection from=":J1_4" to="E3" fromLane="0" toLane="1" via=":J1_21_0" dir="t" state="m"/>
    <connection from=":J1_21" to="E3" fromLane="0" toLane="1" dir="t" state="M"/>
    <connection from=":J1_5" to="E3" fromLane="0" toLane="0" dir="r" state="M"/>
    <connection from=":J1_6" to="-E0" fromLane="0" toLane="0" dir="s" state="M"/>
    <connection from=":J1_6" to="-E0" fromLane="1" toLane="1" dir="s" state="M"/>
    <connection from=":J1_8" to="E2" fromLane="0" toLane="1" via=":J1_22_0" dir="l" state="m"/>
    <connection from=":J1_22" to="E2" fromLane="0" toLane="1" dir="l" state="M"/>
    <connection from=":J1_9" to="E1" fromLane="0" toLane="1" via=":J1_23_0" dir="t" state="m"/>
    <connection from=":J1_23" to="E1" fromLane="0" toLane="1" dir="t" state="M"/>
    <connection from=":J1_10" to="E1" fromLane="0" toLane="0" dir="r" state="M"/>
    <connection from=":J1_11" to="E3" fromLane="0" toLane="0" dir="s" state="M"/>
    <connection from=":J1_11" to="E3" fromLane="1" toLane="1" dir="s" state="M"/>
    <connection from=":J1_13" to="-E0" fromLane="0" toLane="1" via=":J1_24_0" dir="l" state="m"/>
    <connection from=":J1_24" to="-E0" fromLane="0" toLane="1" dir="l" state="M"/>
    <connection from=":J1_14" to="E2" fromLane="0" toLane="1" via=":J1_25_0" dir="t" state="m"/>
    <connection from=":J1_25" to="E2" fromLane="0" toLane="1" dir="t" state="M"/>
    <connection from=":J1_15" to="E2" fromLane="0" toLane="0" dir="r" state="M"/>
    <connection from=":J1_16" to="E1" fromLane="0" toLane="0" dir="s" state="M"/>
    <connection from=":J1_16" to="E1" fromLane="1" toLane="1" dir="s" state="M"/>
    <connection from=":J1_18" to="E3" fromLane="0" toLane="1" via=":J1_26_0" dir="l" state="m"/>
    <connection from=":J1_26" to="E3" fromLane="0" toLane="1" dir="l" state="M"/>
    <connection from=":J1_19" to="-E0" fromLane="0" toLane="1" via=":J1_27_0" dir="t" state="m"/>
    <connection from=":J1_27" to="-E0" fromLane="0" toLane="1" dir="t" state="M"/>

</net>
