<?xml version="1.0" encoding="UTF-8"?>

<!-- generated on 2022-12-14 11:40:17 by Eclipse SUMO netedit Version 1.14.1
<configuration xmlns:xsi="http://www.w3.org/2001/XMLSchema-instance" xsi:noNamespaceSchemaLocation="http://sumo.dlr.de/xsd/netconvertConfiguration.xsd">

    <input>
        <sumo-net-file value="D:\STEMS\simple.net.xml"/>
    </input>

    <output>
        <output-file value="D:\STEMS\simple.net.xml"/>
    </output>

    <processing>
        <geometry.min-radius.fix.railways value="false"/>
        <geometry.max-grade.fix value="false"/>
        <offset.disable-normalization value="true"/>
        <lefthand value="true"/>
    </processing>

    <junctions>
        <no-turnarounds value="true"/>
        <junctions.corner-detail value="5"/>
        <junctions.limit-turn-speed value="5.5"/>
        <rectangular-lane-cut value="false"/>
    </junctions>

    <pedestrian>
        <walkingareas value="false"/>
    </pedestrian>

</configuration>
-->

<net version="1.9" junctionCornerDetail="5" lefthand="true" limitTurnSpeed="5.50"
    xmlns:xsi="http://www.w3.org/2001/XMLSchema-instance" xsi:noNamespaceSchemaLocation="http://sumo.dlr.de/xsd/net_file.xsd">

    <location netOffset="0.00,0.00" convBoundary="-500.00,-500.00,500.00,500.00" origBoundary="-10000000000.00,-10000000000.00,10000000000.00,10000000000.00" projParameter="!"/>

    <edge id=":J10_0" function="internal">
        <lane id=":J10_0_0" index="0" speed="6.51" length="9.03" shape="-4.80,-10.40 -5.15,-7.95 -6.20,-6.20 -7.95,-5.15 -10.40,-4.80"/>
    </edge>
    <edge id=":J10_1" function="internal">
        <lane id=":J10_1_0" index="0" speed="13.89" length="20.80" shape="-4.80,-10.40 -4.80,10.40"/>
        <lane id=":J10_1_1" index="1" speed="13.89" length="20.80" shape="-1.60,-10.40 -1.60,10.40"/>
    </edge>
    <edge id=":J10_3" function="internal">
        <lane id=":J10_3_0" index="0" speed="9.26" length="5.01" shape="-1.60,-10.40 -0.89,-5.44"/>
    </edge>
    <edge id=":J10_4" function="internal">
        <lane id=":J10_4_0" index="0" speed="3.65" length="1.44" shape="-1.60,-10.40 -0.80,-9.20"/>
    </edge>
    <edge id=":J10_20" function="internal">
        <lane id=":J10_20_0" index="0" speed="9.26" length="14.34" shape="-0.89,-5.44 -0.85,-5.15 1.40,-1.40 5.15,0.85 10.40,1.60"/>
    </edge>
    <edge id=":J10_21" function="internal">
        <lane id=":J10_21_0" index="0" speed="3.65" length="3.23" shape="-0.80,-9.20 0.00,-8.80 0.80,-9.20 1.60,-10.40"/>
    </edge>
    <edge id=":J10_5" function="internal">
        <lane id=":J10_5_0" index="0" speed="6.51" length="9.03" shape="10.40,-4.80 7.95,-5.15 6.20,-6.20 5.15,-7.95 4.80,-10.40"/>
    </edge>
    <edge id=":J10_6" function="internal">
        <lane id=":J10_6_0" index="0" speed="13.89" length="20.80" shape="10.40,-4.80 -10.40,-4.80"/>
        <lane id=":J10_6_1" index="1" speed="13.89" length="20.80" shape="10.40,-1.60 -10.40,-1.60"/>
    </edge>
    <edge id=":J10_8" function="internal">
        <lane id=":J10_8_0" index="0" speed="9.26" length="5.01" shape="10.40,-1.60 5.44,-0.89"/>
    </edge>
    <edge id=":J10_9" function="internal">
        <lane id=":J10_9_0" index="0" speed="3.65" length="1.44" shape="10.40,-1.60 9.20,-0.80"/>
    </edge>
    <edge id=":J10_22" function="internal">
        <lane id=":J10_22_0" index="0" speed="9.26" length="14.34" shape="5.44,-0.89 5.15,-0.85 1.40,1.40 -0.85,5.15 -1.60,10.40"/>
    </edge>
    <edge id=":J10_23" function="internal">
        <lane id=":J10_23_0" index="0" speed="3.65" length="3.23" shape="9.20,-0.80 8.80,0.00 9.20,0.80 10.40,1.60"/>
    </edge>
    <edge id=":J10_10" function="internal">
        <lane id=":J10_10_0" index="0" speed="6.51" length="9.03" shape="4.80,10.40 5.15,7.95 6.20,6.20 7.95,5.15 10.40,4.80"/>
    </edge>
    <edge id=":J10_11" function="internal">
        <lane id=":J10_11_0" index="0" speed="13.89" length="20.80" shape="4.80,10.40 4.80,-10.40"/>
        <lane id=":J10_11_1" index="1" speed="13.89" length="20.80" shape="1.60,10.40 1.60,-10.40"/>
    </edge>
    <edge id=":J10_13" function="internal">
        <lane id=":J10_13_0" index="0" speed="9.26" length="5.01" shape="1.60,10.40 0.89,5.44"/>
    </edge>
    <edge id=":J10_14" function="internal">
        <lane id=":J10_14_0" index="0" speed="3.65" length="1.44" shape="1.60,10.40 0.80,9.20"/>
    </edge>
    <edge id=":J10_24" function="internal">
        <lane id=":J10_24_0" index="0" speed="9.26" length="14.34" shape="0.89,5.44 0.85,5.15 -1.40,1.40 -5.15,-0.85 -10.40,-1.60"/>
    </edge>
    <edge id=":J10_25" function="internal">
        <lane id=":J10_25_0" index="0" speed="3.65" length="3.23" shape="0.80,9.20 -0.00,8.80 -0.80,9.20 -1.60,10.40"/>
    </edge>
    <edge id=":J10_15" function="internal">
        <lane id=":J10_15_0" index="0" speed="6.51" length="9.03" shape="-10.40,4.80 -7.95,5.15 -6.20,6.20 -5.15,7.95 -4.80,10.40"/>
    </edge>
    <edge id=":J10_16" function="internal">
        <lane id=":J10_16_0" index="0" speed="13.89" length="20.80" shape="-10.40,4.80 10.40,4.80"/>
        <lane id=":J10_16_1" index="1" speed="13.89" length="20.80" shape="-10.40,1.60 10.40,1.60"/>
    </edge>
    <edge id=":J10_18" function="internal">
        <lane id=":J10_18_0" index="0" speed="9.26" length="5.01" shape="-10.40,1.60 -5.44,0.89"/>
    </edge>
    <edge id=":J10_19" function="internal">
        <lane id=":J10_19_0" index="0" speed="3.65" length="1.44" shape="-10.40,1.60 -9.20,0.80"/>
    </edge>
    <edge id=":J10_26" function="internal">
        <lane id=":J10_26_0" index="0" speed="9.26" length="14.34" shape="-5.44,0.89 -5.15,0.85 -1.40,-1.40 0.85,-5.15 1.60,-10.40"/>
    </edge>
    <edge id=":J10_27" function="internal">
        <lane id=":J10_27_0" index="0" speed="3.65" length="3.23" shape="-9.20,0.80 -8.80,-0.00 -9.20,-0.80 -10.40,-1.60"/>
    </edge>

    <edge id="-E10" from="J13" to="J10" priority="-1">
        <lane id="-E10_0" index="0" speed="13.89" length="489.60" shape="-4.80,-500.00 -4.80,-10.40"/>
        <lane id="-E10_1" index="1" speed="13.89" length="489.60" shape="-1.60,-500.00 -1.60,-10.40"/>
    </edge>
    <edge id="-E7" from="J10" to="J9" priority="-1">
        <lane id="-E7_0" index="0" speed="13.89" length="489.60" shape="-10.40,-4.80 -500.00,-4.80"/>
        <lane id="-E7_1" index="1" speed="13.89" length="489.60" shape="-10.40,-1.60 -500.00,-1.60"/>
    </edge>
    <edge id="-E8" from="J11" to="J10" priority="-1">
        <lane id="-E8_0" index="0" speed="13.89" length="489.60" shape="500.00,-4.80 10.40,-4.80"/>
        <lane id="-E8_1" index="1" speed="13.89" length="489.60" shape="500.00,-1.60 10.40,-1.60"/>
    </edge>
    <edge id="-E9" from="J12" to="J10" priority="-1">
        <lane id="-E9_0" index="0" speed="13.89" length="489.60" shape="4.80,500.00 4.80,10.40"/>
        <lane id="-E9_1" index="1" speed="13.89" length="489.60" shape="1.60,500.00 1.60,10.40"/>
    </edge>
    <edge id="E10" from="J10" to="J13" priority="-1">
        <lane id="E10_0" index="0" speed="13.89" length="489.60" shape="4.80,-10.40 4.80,-500.00"/>
        <lane id="E10_1" index="1" speed="13.89" length="489.60" shape="1.60,-10.40 1.60,-500.00"/>
    </edge>
    <edge id="E7" from="J9" to="J10" priority="-1">
        <lane id="E7_0" index="0" speed="13.89" length="489.60" shape="-500.00,4.80 -10.40,4.80"/>
        <lane id="E7_1" index="1" speed="13.89" length="489.60" shape="-500.00,1.60 -10.40,1.60"/>
    </edge>
    <edge id="E8" from="J10" to="J11" priority="-1">
        <lane id="E8_0" index="0" speed="13.89" length="489.60" shape="10.40,4.80 500.00,4.80"/>
        <lane id="E8_1" index="1" speed="13.89" length="489.60" shape="10.40,1.60 500.00,1.60"/>
    </edge>
    <edge id="E9" from="J10" to="J12" priority="-1">
        <lane id="E9_0" index="0" speed="13.89" length="489.60" shape="-4.80,10.40 -4.80,500.00"/>
        <lane id="E9_1" index="1" speed="13.89" length="489.60" shape="-1.60,10.40 -1.60,500.00"/>
    </edge>
    <tlLogic id="J10" type="static" programID="NEMA" offset="0">
        <phase duration="30" state="grrrggGGrggrrrggGGrg"/>
        <phase duration="3" state="gyyrggyyrggyyrggyyrg"/>
        <phase duration="30" state="gGGrggrrrggGGrggrrrg"/>
        <phase duration="3" state="gyyrggrryggyyrggrryg"/>
        <phase duration="30" state="grrrggrrGggrrrggrrGg"/>
        <phase duration="3" state="grryggrryggrryggrryg"/>
        <phase duration="30" state="grrGggrrrggrrGggrrrg"/>
        <phase duration="3" state="grryggyyrggrryggyyrg"/>
    </tlLogic>

    <junction id="J10" type="traffic_light" x="0.00" y="0.00" incLanes="-E10_0 -E10_1 -E8_0 -E8_1 -E9_0 -E9_1 E7_0 E7_1" intLanes=":J10_0_0 :J10_1_0 :J10_1_1 :J10_20_0 :J10_21_0 :J10_5_0 :J10_6_0 :J10_6_1 :J10_22_0 :J10_23_0 :J10_10_0 :J10_11_0 :J10_11_1 :J10_24_0 :J10_25_0 :J10_15_0 :J10_16_0 :J10_16_1 :J10_26_0 :J10_27_0" shape="-6.40,-10.40 6.40,-10.40 6.84,-8.18 7.40,-7.40 8.18,-6.84 9.18,-6.51 10.40,-6.40 10.40,6.40 8.18,6.84 7.40,7.40 6.84,8.18 6.51,9.18 6.40,10.40 -6.40,10.40 -6.84,8.18 -7.40,7.40 -8.18,6.84 -9.18,6.51 -10.40,6.40 -10.40,-6.40 -8.18,-6.84 -7.40,-7.40 -6.84,-8.18 -6.51,-9.18">
        <request index="0" response="00000000000000000000" foes="00000000000011000000" cont="0"/>
        <request index="1" response="01000000000100000000" foes="01111110000111000000" cont="0"/>
        <request index="2" response="01000000000100000000" foes="01111110000111000000" cont="0"/>
        <request index="3" response="01000001100100000000" foes="01110001101111000000" cont="1"/>
        <request index="4" response="01000001100000000000" foes="01000001100000000000" cont="1"/>
        <request index="5" response="00000001100000000000" foes="00000001100000000000" cont="0"/>
        <request index="6" response="00000011100000001111" foes="11000011100000001111" cont="0"/>
        <request index="7" response="00000011100000001111" foes="11000011100000001111" cont="0"/>
        <request index="8" response="00110011100000001110" foes="00110111100000001110" cont="1"/>
        <request index="9" response="00110000000000001000" foes="00110000000000001000" cont="1"/>
        <request index="10" response="00000000000000000000" foes="00110000000000000000" cont="0"/>
        <request index="11" response="01000000000100000000" foes="01110000000111111000" cont="0"/>
        <request index="12" response="01000000000100000000" foes="01110000000111111000" cont="0"/>
        <request index="13" response="01000000000100000110" foes="11110000000111000110" cont="1"/>
        <request index="14" response="00000000000100000110" foes="00000000000100000110" cont="1"/>
        <request index="15" response="00000000000000000110" foes="00000000000000000110" cont="0"/>
        <request index="16" response="00000011110000001110" foes="00000011111100001110" cont="0"/>
        <request index="17" response="00000011110000001110" foes="00000011111100001110" cont="0"/>
        <request index="18" response="00000011100011001110" foes="00000011100011011110" cont="1"/>
        <request index="19" response="00000010000011000000" foes="00000010000011000000" cont="1"/>
    </junction>
    <junction id="J11" type="dead_end" x="500.00" y="0.00" incLanes="E8_0 E8_1" intLanes="" shape="500.00,-0.00 500.00,6.40 500.00,-0.00"/>
    <junction id="J12" type="dead_end" x="0.00" y="500.00" incLanes="E9_0 E9_1" intLanes="" shape="0.00,500.00 -6.40,500.00 0.00,500.00"/>
    <junction id="J13" type="dead_end" x="0.00" y="-500.00" incLanes="E10_0 E10_1" intLanes="" shape="0.00,-500.00 6.40,-500.00 0.00,-500.00"/>
    <junction id="J9" type="dead_end" x="-500.00" y="0.00" incLanes="-E7_0 -E7_1" intLanes="" shape="-500.00,-0.00 -500.00,-6.40 -500.00,-0.00"/>

    <junction id=":J10_20_0" type="internal" x="-0.89" y="-5.44" incLanes=":J10_3_0 -E9_0 -E9_1" intLanes=":J10_6_0 :J10_6_1 :J10_8_0 :J10_9_0 :J10_10_0 :J10_11_0 :J10_11_1 :J10_16_0 :J10_16_1 :J10_18_0"/>
    <junction id=":J10_21_0" type="internal" x="-0.80" y="-9.20" incLanes=":J10_4_0 -E8_0 -E9_0 -E9_1 E7_1" intLanes=":J10_5_0 :J10_11_0 :J10_11_1 :J10_18_0"/>
    <junction id=":J10_22_0" type="internal" x="5.44" y="-0.89" incLanes=":J10_8_0 E7_0 E7_1" intLanes=":J10_1_0 :J10_1_1 :J10_3_0 :J10_11_0 :J10_11_1 :J10_13_0 :J10_14_0 :J10_15_0 :J10_16_0 :J10_16_1"/>
    <junction id=":J10_23_0" type="internal" x="9.20" y="-0.80" incLanes=":J10_9_0 -E10_1 -E9_0 E7_0 E7_1" intLanes=":J10_3_0 :J10_10_0 :J10_16_0 :J10_16_1"/>
    <junction id=":J10_24_0" type="internal" x="0.89" y="5.44" incLanes=":J10_13_0 -E10_0 -E10_1" intLanes=":J10_0_0 :J10_1_0 :J10_1_1 :J10_6_0 :J10_6_1 :J10_8_0 :J10_16_0 :J10_16_1 :J10_18_0 :J10_19_0"/>
    <junction id=":J10_25_0" type="internal" x="0.80" y="9.20" incLanes=":J10_14_0 -E10_0 -E10_1 -E8_1 E7_0" intLanes=":J10_1_0 :J10_1_1 :J10_8_0 :J10_15_0"/>
    <junction id=":J10_26_0" type="internal" x="-5.44" y="0.89" incLanes=":J10_18_0 -E8_0 -E8_1" intLanes=":J10_1_0 :J10_1_1 :J10_3_0 :J10_4_0 :J10_5_0 :J10_6_0 :J10_6_1 :J10_11_0 :J10_11_1 :J10_13_0"/>
    <junction id=":J10_27_0" type="internal" x="-9.20" y="0.80" incLanes=":J10_19_0 -E10_0 -E8_0 -E8_1 -E9_1" intLanes=":J10_0_0 :J10_6_0 :J10_6_1 :J10_13_0"/>

    <connection from="-E10" to="-E7" fromLane="0" toLane="0" via=":J10_0_0" tl="J10" linkIndex="0" dir="l" state="O"/>
    <connection from="-E10" to="E9" fromLane="0" toLane="0" via=":J10_1_0" tl="J10" linkIndex="1" dir="s" state="O"/>
    <connection from="-E10" to="E9" fromLane="1" toLane="1" via=":J10_1_1" tl="J10" linkIndex="2" dir="s" state="O"/>
    <connection from="-E10" to="E8" fromLane="1" toLane="1" via=":J10_3_0" tl="J10" linkIndex="3" dir="r" state="o"/>
    <connection from="-E10" to="E10" fromLane="1" toLane="1" via=":J10_4_0" tl="J10" linkIndex="4" dir="T" state="o"/>
    <connection from="-E8" to="E10" fromLane="0" toLane="0" via=":J10_5_0" tl="J10" linkIndex="5" dir="l" state="o"/>
    <connection from="-E8" to="-E7" fromLane="0" toLane="0" via=":J10_6_0" tl="J10" linkIndex="6" dir="s" state="o"/>
    <connection from="-E8" to="-E7" fromLane="1" toLane="1" via=":J10_6_1" tl="J10" linkIndex="7" dir="s" state="o"/>
    <connection from="-E8" to="E9" fromLane="1" toLane="1" via=":J10_8_0" tl="J10" linkIndex="8" dir="r" state="o"/>
    <connection from="-E8" to="E8" fromLane="1" toLane="1" via=":J10_9_0" tl="J10" linkIndex="9" dir="T" state="o"/>
    <connection from="-E9" to="E8" fromLane="0" toLane="0" via=":J10_10_0" tl="J10" linkIndex="10" dir="l" state="O"/>
    <connection from="-E9" to="E10" fromLane="0" toLane="0" via=":J10_11_0" tl="J10" linkIndex="11" dir="s" state="O"/>
    <connection from="-E9" to="E10" fromLane="1" toLane="1" via=":J10_11_1" tl="J10" linkIndex="12" dir="s" state="O"/>
    <connection from="-E9" to="-E7" fromLane="1" toLane="1" via=":J10_13_0" tl="J10" linkIndex="13" dir="r" state="o"/>
    <connection from="-E9" to="E9" fromLane="1" toLane="1" via=":J10_14_0" tl="J10" linkIndex="14" dir="T" state="o"/>
    <connection from="E7" to="E9" fromLane="0" toLane="0" via=":J10_15_0" tl="J10" linkIndex="15" dir="l" state="o"/>
    <connection from="E7" to="E8" fromLane="0" toLane="0" via=":J10_16_0" tl="J10" linkIndex="16" dir="s" state="o"/>
    <connection from="E7" to="E8" fromLane="1" toLane="1" via=":J10_16_1" tl="J10" linkIndex="17" dir="s" state="o"/>
    <connection from="E7" to="E10" fromLane="1" toLane="1" via=":J10_18_0" tl="J10" linkIndex="18" dir="r" state="o"/>
    <connection from="E7" to="-E7" fromLane="1" toLane="1" via=":J10_19_0" tl="J10" linkIndex="19" dir="T" state="o"/>

    <connection from=":J10_0" to="-E7" fromLane="0" toLane="0" dir="l" state="M"/>
    <connection from=":J10_1" to="E9" fromLane="0" toLane="0" dir="s" state="M"/>
    <connection from=":J10_1" to="E9" fromLane="1" toLane="1" dir="s" state="M"/>
    <connection from=":J10_3" to="E8" fromLane="0" toLane="1" via=":J10_20_0" dir="r" state="m"/>
    <connection from=":J10_20" to="E8" fromLane="0" toLane="1" dir="r" state="M"/>
    <connection from=":J10_4" to="E10" fromLane="0" toLane="1" via=":J10_21_0" dir="T" state="m"/>
    <connection from=":J10_21" to="E10" fromLane="0" toLane="1" dir="T" state="M"/>
    <connection from=":J10_5" to="E10" fromLane="0" toLane="0" dir="l" state="M"/>
    <connection from=":J10_6" to="-E7" fromLane="0" toLane="0" dir="s" state="M"/>
    <connection from=":J10_6" to="-E7" fromLane="1" toLane="1" dir="s" state="M"/>
    <connection from=":J10_8" to="E9" fromLane="0" toLane="1" via=":J10_22_0" dir="r" state="m"/>
    <connection from=":J10_22" to="E9" fromLane="0" toLane="1" dir="r" state="M"/>
    <connection from=":J10_9" to="E8" fromLane="0" toLane="1" via=":J10_23_0" dir="T" state="m"/>
    <connection from=":J10_23" to="E8" fromLane="0" toLane="1" dir="T" state="M"/>
    <connection from=":J10_10" to="E8" fromLane="0" toLane="0" dir="l" state="M"/>
    <connection from=":J10_11" to="E10" fromLane="0" toLane="0" dir="s" state="M"/>
    <connection from=":J10_11" to="E10" fromLane="1" toLane="1" dir="s" state="M"/>
    <connection from=":J10_13" to="-E7" fromLane="0" toLane="1" via=":J10_24_0" dir="r" state="m"/>
    <connection from=":J10_24" to="-E7" fromLane="0" toLane="1" dir="r" state="M"/>
    <connection from=":J10_14" to="E9" fromLane="0" toLane="1" via=":J10_25_0" dir="T" state="m"/>
    <connection from=":J10_25" to="E9" fromLane="0" toLane="1" dir="T" state="M"/>
    <connection from=":J10_15" to="E9" fromLane="0" toLane="0" dir="l" state="M"/>
    <connection from=":J10_16" to="E8" fromLane="0" toLane="0" dir="s" state="M"/>
    <connection from=":J10_16" to="E8" fromLane="1" toLane="1" dir="s" state="M"/>
    <connection from=":J10_18" to="E10" fromLane="0" toLane="1" via=":J10_26_0" dir="r" state="m"/>
    <connection from=":J10_26" to="E10" fromLane="0" toLane="1" dir="r" state="M"/>
    <connection from=":J10_19" to="-E7" fromLane="0" toLane="1" via=":J10_27_0" dir="T" state="m"/>
    <connection from=":J10_27" to="-E7" fromLane="0" toLane="1" dir="T" state="M"/>

</net>
