<?xml version="1.0" encoding="UTF-8"?>

<!-- generated on 2022-12-30 16:57:04.918834 by randomTrips.py v1_14_1+0000-f654d7b963e
<configuration>
    <additional-files value="vehicles.add.vtype.xml"/>
    <end value="3600"/>
    <fringe-factor value="100.0"/>
    <net-file value="simple.net.xml"/>
    <route-file value="routes.rou.xml"/>
    <trip-attributes value="type=&quot;typedist1&quot;"/>
    <validate value="True"/>
</configuration>
-->

<!-- generated on 2022-12-30 16:57:04 by Eclipse SUMO duarouter Version 1.14.1
<configuration xmlns:xsi="http://www.w3.org/2001/XMLSchema-instance" xsi:noNamespaceSchemaLocation="http://sumo.dlr.de/xsd/duarouterConfiguration.xsd">

    <input>
        <net-file value="simple.net.xml"/>
        <additional-files value="vehicles.add.vtype.xml"/>
        <route-files value="trips.trips.xml"/>
    </input>

    <output>
        <output-file value="trips.trips.xml.tmp"/>
        <alternatives-output value="NUL"/>
        <write-trips value="true"/>
    </output>

    <time>
        <begin value="0"/>
        <end value="3600"/>
    </time>

    <report>
        <no-warnings value="true"/>
        <ignore-errors value="true"/>
        <no-step-log value="true"/>
    </report>

</configuration>
-->

<routes xmlns:xsi="http://www.w3.org/2001/XMLSchema-instance" xsi:noNamespaceSchemaLocation="http://sumo.dlr.de/xsd/routes_file.xsd">
    <vType id="vTypeBus" maxSpeed="25.00" probability="0.10" vClass="bus" guiShape="bus"/>
    <trip id="0" type="vTypeBus" depart="0.00" from="-E9" to="-E7"/>
    <vType id="vTypeMotorcycle" maxSpeed="35.00" probability="0.20" vClass="motorcycle" guiShape="motorcycle"/>
    <trip id="1" type="vTypeMotorcycle" depart="1.00" from="-E8" to="-E7"/>
    <vType id="vTypeCar" length="4.50" maxSpeed="35.00" probability="0.60" vClass="passenger" guiShape="passenger"/>
    <trip id="2" type="vTypeCar" depart="2.00" from="-E9" to="E8"/>
    <trip id="3" type="vTypeCar" depart="3.00" from="E7" to="-E7"/>
    <trip id="4" type="vTypeCar" depart="4.00" from="-E8" to="-E7"/>
    <trip id="5" type="vTypeCar" depart="5.00" from="-E10" to="E8"/>
    <trip id="6" type="vTypeMotorcycle" depart="6.00" from="-E10" to="-E7"/>
    <trip id="7" type="vTypeCar" depart="7.00" from="-E9" to="E8"/>
    <trip id="8" type="vTypeCar" depart="8.00" from="-E10" to="E8"/>
    <trip id="9" type="vTypeMotorcycle" depart="9.00" from="E7" to="-E7"/>
    <trip id="10" type="vTypeCar" depart="10.00" from="E7" to="E8"/>
    <trip id="11" type="vTypeMotorcycle" depart="11.00" from="-E8" to="-E7"/>
    <trip id="12" type="vTypeCar" depart="12.00" from="E7" to="E10"/>
    <trip id="13" type="vTypeCar" depart="13.00" from="-E10" to="-E7"/>
    <trip id="14" type="vTypeCar" depart="14.00" from="E7" to="E8"/>
    <trip id="15" type="vTypeCar" depart="15.00" from="E7" to="E8"/>
    <trip id="16" type="vTypeCar" depart="16.00" from="-E9" to="E9"/>
    <trip id="17" type="vTypeBus" depart="17.00" from="-E8" to="E8"/>
    <trip id="18" type="vTypeCar" depart="18.00" from="E7" to="E8"/>
    <trip id="19" type="vTypeMotorcycle" depart="19.00" from="E7" to="E8"/>
    <trip id="20" type="vTypeCar" depart="20.00" from="-E9" to="-E7"/>
    <trip id="21" type="vTypeCar" depart="21.00" from="-E10" to="E10"/>
    <trip id="22" type="vTypeCar" depart="22.00" from="-E10" to="-E7"/>
    <trip id="23" type="vTypeMotorcycle" depart="23.00" from="-E10" to="E10"/>
    <vType id="vTypeEmergency" maxSpeed="40.00" probability="0.10" vClass="emergency" guiShape="emergency"/>
    <trip id="24" type="vTypeEmergency" depart="24.00" from="-E9" to="E10"/>
    <trip id="25" type="vTypeBus" depart="25.00" from="-E8" to="-E7"/>
    <trip id="26" type="vTypeBus" depart="26.00" from="-E8" to="E9"/>
    <trip id="27" type="vTypeCar" depart="27.00" from="-E9" to="E8"/>
    <trip id="28" type="vTypeCar" depart="28.00" from="-E10" to="E8"/>
    <trip id="29" type="vTypeCar" depart="29.00" from="-E10" to="E10"/>
    <trip id="30" type="vTypeCar" depart="30.00" from="E7" to="E8"/>
    <trip id="31" type="vTypeCar" depart="31.00" from="-E9" to="E8"/>
    <trip id="32" type="vTypeMotorcycle" depart="32.00" from="E7" to="E9"/>
    <trip id="33" type="vTypeCar" depart="33.00" from="-E10" to="-E7"/>
    <trip id="34" type="vTypeEmergency" depart="34.00" from="-E8" to="E10"/>
    <trip id="35" type="vTypeCar" depart="35.00" from="-E10" to="E9"/>
    <trip id="36" type="vTypeMotorcycle" depart="36.00" from="E7" to="E10"/>
    <trip id="37" type="vTypeCar" depart="37.00" from="-E9" to="E10"/>
    <trip id="38" type="vTypeCar" depart="38.00" from="E7" to="E10"/>
    <trip id="39" type="vTypeCar" depart="39.00" from="-E8" to="-E7"/>
    <trip id="40" type="vTypeCar" depart="40.00" from="-E9" to="E10"/>
    <trip id="41" type="vTypeEmergency" depart="41.00" from="-E9" to="E9"/>
    <trip id="42" type="vTypeCar" depart="42.00" from="-E8" to="-E7"/>
    <trip id="43" type="vTypeCar" depart="43.00" from="E7" to="E8"/>
    <trip id="44" type="vTypeCar" depart="44.00" from="-E10" to="-E7"/>
    <trip id="45" type="vTypeCar" depart="45.00" from="-E10" to="E8"/>
    <trip id="46" type="vTypeCar" depart="46.00" from="E7" to="E10"/>
    <trip id="47" type="vTypeBus" depart="47.00" from="-E10" to="E10"/>
    <trip id="48" type="vTypeCar" depart="48.00" from="E7" to="E8"/>
    <trip id="49" type="vTypeMotorcycle" depart="49.00" from="E7" to="E9"/>
    <trip id="50" type="vTypeMotorcycle" depart="50.00" from="-E10" to="E8"/>
    <trip id="51" type="vTypeCar" depart="51.00" from="-E9" to="E8"/>
    <trip id="52" type="vTypeMotorcycle" depart="52.00" from="-E8" to="E8"/>
    <trip id="53" type="vTypeEmergency" depart="53.00" from="-E10" to="E10"/>
    <trip id="54" type="vTypeEmergency" depart="54.00" from="-E8" to="E9"/>
    <trip id="55" type="vTypeCar" depart="55.00" from="E7" to="E10"/>
    <trip id="56" type="vTypeCar" depart="56.00" from="-E9" to="-E7"/>
    <trip id="57" type="vTypeCar" depart="57.00" from="E7" to="E9"/>
    <trip id="58" type="vTypeCar" depart="58.00" from="-E8" to="E8"/>
    <trip id="59" type="vTypeEmergency" depart="59.00" from="-E9" to="-E7"/>
    <trip id="60" type="vTypeCar" depart="60.00" from="E7" to="E8"/>
    <trip id="61" type="vTypeMotorcycle" depart="61.00" from="E7" to="E8"/>
    <trip id="62" type="vTypeCar" depart="62.00" from="-E10" to="E10"/>
    <trip id="63" type="vTypeCar" depart="63.00" from="-E10" to="E9"/>
    <trip id="64" type="vTypeCar" depart="64.00" from="E7" to="E9"/>
    <trip id="65" type="vTypeCar" depart="65.00" from="-E8" to="-E7"/>
    <trip id="66" type="vTypeEmergency" depart="66.00" from="E7" to="E9"/>
    <trip id="67" type="vTypeCar" depart="67.00" from="-E10" to="E10"/>
    <trip id="68" type="vTypeCar" depart="68.00" from="-E10" to="E9"/>
    <trip id="69" type="vTypeEmergency" depart="69.00" from="E7" to="-E7"/>
    <trip id="70" type="vTypeCar" depart="70.00" from="-E8" to="E8"/>
    <trip id="71" type="vTypeCar" depart="71.00" from="-E8" to="E9"/>
    <trip id="72" type="vTypeCar" depart="72.00" from="-E8" to="-E7"/>
    <trip id="73" type="vTypeCar" depart="73.00" from="-E9" to="E8"/>
    <trip id="74" type="vTypeCar" depart="74.00" from="-E10" to="E10"/>
    <trip id="75" type="vTypeCar" depart="75.00" from="E7" to="E8"/>
    <trip id="76" type="vTypeCar" depart="76.00" from="-E8" to="E8"/>
    <trip id="77" type="vTypeCar" depart="77.00" from="-E10" to="-E7"/>
    <trip id="78" type="vTypeMotorcycle" depart="78.00" from="-E8" to="E8"/>
    <trip id="79" type="vTypeCar" depart="79.00" from="-E10" to="-E7"/>
    <trip id="80" type="vTypeCar" depart="80.00" from="-E10" to="E8"/>
    <trip id="81" type="vTypeCar" depart="81.00" from="-E10" to="E9"/>
    <trip id="82" type="vTypeMotorcycle" depart="82.00" from="E7" to="-E7"/>
    <trip id="83" type="vTypeCar" depart="83.00" from="-E10" to="E8"/>
    <trip id="84" type="vTypeMotorcycle" depart="84.00" from="-E10" to="-E7"/>
    <trip id="85" type="vTypeCar" depart="85.00" from="E7" to="E8"/>
    <trip id="86" type="vTypeCar" depart="86.00" from="-E8" to="E9"/>
    <trip id="87" type="vTypeBus" depart="87.00" from="E7" to="-E7"/>
    <trip id="88" type="vTypeCar" depart="88.00" from="-E10" to="E10"/>
    <trip id="89" type="vTypeCar" depart="89.00" from="-E8" to="E10"/>
    <trip id="90" type="vTypeCar" depart="90.00" from="-E9" to="E8"/>
    <trip id="91" type="vTypeEmergency" depart="91.00" from="E7" to="-E7"/>
    <trip id="92" type="vTypeCar" depart="92.00" from="-E8" to="E10"/>
    <trip id="93" type="vTypeCar" depart="93.00" from="E7" to="-E7"/>
    <trip id="94" type="vTypeCar" depart="94.00" from="-E10" to="E10"/>
    <trip id="95" type="vTypeBus" depart="95.00" from="-E8" to="E10"/>
    <trip id="96" type="vTypeMotorcycle" depart="96.00" from="-E10" to="E9"/>
    <trip id="97" type="vTypeEmergency" depart="97.00" from="-E8" to="E9"/>
    <trip id="98" type="vTypeCar" depart="98.00" from="-E9" to="-E7"/>
    <trip id="99" type="vTypeCar" depart="99.00" from="E7" to="E9"/>
    <trip id="100" type="vTypeMotorcycle" depart="100.00" from="E7" to="E9"/>
    <trip id="101" type="vTypeCar" depart="101.00" from="E7" to="-E7"/>
    <trip id="102" type="vTypeBus" depart="102.00" from="-E8" to="-E7"/>
    <trip id="103" type="vTypeCar" depart="103.00" from="-E8" to="-E7"/>
    <trip id="104" type="vTypeEmergency" depart="104.00" from="-E8" to="E9"/>
    <trip id="105" type="vTypeCar" depart="105.00" from="-E8" to="E9"/>
    <trip id="106" type="vTypeCar" depart="106.00" from="-E8" to="E10"/>
    <trip id="107" type="vTypeCar" depart="107.00" from="E7" to="E9"/>
    <trip id="108" type="vTypeMotorcycle" depart="108.00" from="-E9" to="E8"/>
    <trip id="109" type="vTypeCar" depart="109.00" from="-E10" to="E10"/>
    <trip id="110" type="vTypeCar" depart="110.00" from="E7" to="E8"/>
    <trip id="111" type="vTypeMotorcycle" depart="111.00" from="-E9" to="E8"/>
    <trip id="112" type="vTypeMotorcycle" depart="112.00" from="-E10" to="E8"/>
    <trip id="113" type="vTypeCar" depart="113.00" from="-E9" to="E9"/>
    <trip id="114" type="vTypeMotorcycle" depart="114.00" from="-E10" to="E9"/>
    <trip id="115" type="vTypeCar" depart="115.00" from="-E10" to="-E7"/>
    <trip id="116" type="vTypeMotorcycle" depart="116.00" from="-E9" to="E8"/>
    <trip id="117" type="vTypeCar" depart="117.00" from="-E10" to="-E7"/>
    <trip id="118" type="vTypeBus" depart="118.00" from="E7" to="-E7"/>
    <trip id="119" type="vTypeCar" depart="119.00" from="-E9" to="E8"/>
    <trip id="120" type="vTypeCar" depart="120.00" from="-E8" to="E8"/>
    <trip id="121" type="vTypeCar" depart="121.00" from="-E9" to="E9"/>
    <trip id="122" type="vTypeCar" depart="122.00" from="-E10" to="E8"/>
    <trip id="123" type="vTypeMotorcycle" depart="123.00" from="-E10" to="E10"/>
    <trip id="124" type="vTypeEmergency" depart="124.00" from="-E9" to="E10"/>
    <trip id="125" type="vTypeBus" depart="125.00" from="-E8" to="E9"/>
    <trip id="126" type="vTypeCar" depart="126.00" from="-E10" to="E10"/>
    <trip id="127" type="vTypeEmergency" depart="127.00" from="E7" to="E9"/>
    <trip id="128" type="vTypeCar" depart="128.00" from="-E10" to="-E7"/>
    <trip id="129" type="vTypeMotorcycle" depart="129.00" from="-E8" to="E9"/>
    <trip id="130" type="vTypeCar" depart="130.00" from="E7" to="E9"/>
    <trip id="131" type="vTypeCar" depart="131.00" from="-E8" to="-E7"/>
    <trip id="132" type="vTypeCar" depart="132.00" from="E7" to="E8"/>
    <trip id="133" type="vTypeCar" depart="133.00" from="-E9" to="E9"/>
    <trip id="134" type="vTypeMotorcycle" depart="134.00" from="-E9" to="-E7"/>
    <trip id="135" type="vTypeCar" depart="135.00" from="E7" to="E10"/>
    <trip id="136" type="vTypeCar" depart="136.00" from="-E9" to="E9"/>
    <trip id="137" type="vTypeCar" depart="137.00" from="-E10" to="-E7"/>
    <trip id="138" type="vTypeBus" depart="138.00" from="-E10" to="E8"/>
    <trip id="139" type="vTypeMotorcycle" depart="139.00" from="-E8" to="E8"/>
    <trip id="140" type="vTypeBus" depart="140.00" from="-E9" to="-E7"/>
    <trip id="141" type="vTypeEmergency" depart="141.00" from="-E9" to="E10"/>
    <trip id="142" type="vTypeCar" depart="142.00" from="-E8" to="E9"/>
    <trip id="143" type="vTypeCar" depart="143.00" from="E7" to="-E7"/>
    <trip id="144" type="vTypeEmergency" depart="144.00" from="-E8" to="E10"/>
    <trip id="145" type="vTypeBus" depart="145.00" from="-E10" to="E9"/>
    <trip id="146" type="vTypeCar" depart="146.00" from="-E9" to="E10"/>
    <trip id="147" type="vTypeEmergency" depart="147.00" from="-E9" to="E8"/>
    <trip id="148" type="vTypeCar" depart="148.00" from="-E8" to="-E7"/>
    <trip id="149" type="vTypeCar" depart="149.00" from="-E10" to="E9"/>
    <trip id="150" type="vTypeMotorcycle" depart="150.00" from="E7" to="E8"/>
    <trip id="151" type="vTypeCar" depart="151.00" from="E7" to="E8"/>
    <trip id="152" type="vTypeCar" depart="152.00" from="-E10" to="-E7"/>
    <trip id="153" type="vTypeCar" depart="153.00" from="-E8" to="E9"/>
    <trip id="154" type="vTypeMotorcycle" depart="154.00" from="E7" to="E9"/>
    <trip id="155" type="vTypeEmergency" depart="155.00" from="E7" to="-E7"/>
    <trip id="156" type="vTypeCar" depart="156.00" from="-E10" to="-E7"/>
    <trip id="157" type="vTypeCar" depart="157.00" from="E7" to="E9"/>
    <trip id="158" type="vTypeEmergency" depart="158.00" from="-E8" to="E8"/>
    <trip id="159" type="vTypeCar" depart="159.00" from="-E10" to="E9"/>
    <trip id="160" type="vTypeCar" depart="160.00" from="E7" to="E9"/>
    <trip id="161" type="vTypeBus" depart="161.00" from="E7" to="E9"/>
    <trip id="162" type="vTypeBus" depart="162.00" from="-E10" to="E8"/>
    <trip id="163" type="vTypeCar" depart="163.00" from="-E8" to="E9"/>
    <trip id="164" type="vTypeEmergency" depart="164.00" from="E7" to="E9"/>
    <trip id="165" type="vTypeCar" depart="165.00" from="E7" to="E10"/>
    <trip id="166" type="vTypeEmergency" depart="166.00" from="E7" to="-E7"/>
    <trip id="167" type="vTypeMotorcycle" depart="167.00" from="E7" to="E9"/>
    <trip id="168" type="vTypeCar" depart="168.00" from="-E10" to="E9"/>
    <trip id="169" type="vTypeBus" depart="169.00" from="-E8" to="E10"/>
    <trip id="170" type="vTypeCar" depart="170.00" from="E7" to="-E7"/>
    <trip id="171" type="vTypeCar" depart="171.00" from="-E10" to="-E7"/>
    <trip id="172" type="vTypeCar" depart="172.00" from="-E8" to="E9"/>
    <trip id="173" type="vTypeCar" depart="173.00" from="E7" to="E10"/>
    <trip id="174" type="vTypeCar" depart="174.00" from="-E9" to="E10"/>
    <trip id="175" type="vTypeMotorcycle" depart="175.00" from="E7" to="E8"/>
    <trip id="176" type="vTypeCar" depart="176.00" from="E7" to="-E7"/>
    <trip id="177" type="vTypeCar" depart="177.00" from="E7" to="-E7"/>
    <trip id="178" type="vTypeBus" depart="178.00" from="E7" to="E10"/>
    <trip id="179" type="vTypeCar" depart="179.00" from="-E10" to="E10"/>
    <trip id="180" type="vTypeCar" depart="180.00" from="-E9" to="E10"/>
    <trip id="181" type="vTypeCar" depart="181.00" from="-E9" to="E8"/>
    <trip id="182" type="vTypeMotorcycle" depart="182.00" from="-E8" to="E8"/>
    <trip id="183" type="vTypeCar" depart="183.00" from="-E8" to="E8"/>
    <trip id="184" type="vTypeCar" depart="184.00" from="-E10" to="E9"/>
    <trip id="185" type="vTypeCar" depart="185.00" from="-E9" to="E8"/>
    <trip id="186" type="vTypeCar" depart="186.00" from="-E9" to="E8"/>
    <trip id="187" type="vTypeCar" depart="187.00" from="-E8" to="-E7"/>
    <trip id="188" type="vTypeEmergency" depart="188.00" from="-E9" to="E10"/>
    <trip id="189" type="vTypeCar" depart="189.00" from="-E8" to="E9"/>
    <trip id="190" type="vTypeCar" depart="190.00" from="-E9" to="E10"/>
    <trip id="191" type="vTypeBus" depart="191.00" from="-E8" to="E10"/>
    <trip id="192" type="vTypeCar" depart="192.00" from="-E8" to="E10"/>
    <trip id="193" type="vTypeCar" depart="193.00" from="-E10" to="E10"/>
    <trip id="194" type="vTypeCar" depart="194.00" from="E7" to="E8"/>
    <trip id="195" type="vTypeEmergency" depart="195.00" from="E7" to="E8"/>
    <trip id="196" type="vTypeCar" depart="196.00" from="-E8" to="E8"/>
    <trip id="197" type="vTypeEmergency" depart="197.00" from="-E10" to="E10"/>
    <trip id="198" type="vTypeCar" depart="198.00" from="-E8" to="E8"/>
    <trip id="199" type="vTypeMotorcycle" depart="199.00" from="-E9" to="E10"/>
    <trip id="200" type="vTypeCar" depart="200.00" from="-E8" to="-E7"/>
    <trip id="201" type="vTypeCar" depart="201.00" from="-E8" to="E9"/>
    <trip id="202" type="vTypeCar" depart="202.00" from="E7" to="-E7"/>
    <trip id="203" type="vTypeCar" depart="203.00" from="-E10" to="E8"/>
    <trip id="204" type="vTypeMotorcycle" depart="204.00" from="-E9" to="E10"/>
    <trip id="205" type="vTypeMotorcycle" depart="205.00" from="E7" to="E9"/>
    <trip id="206" type="vTypeMotorcycle" depart="206.00" from="-E9" to="-E7"/>
    <trip id="207" type="vTypeCar" depart="207.00" from="-E10" to="-E7"/>
    <trip id="208" type="vTypeCar" depart="208.00" from="-E10" to="E10"/>
    <trip id="209" type="vTypeCar" depart="209.00" from="E7" to="-E7"/>
    <trip id="210" type="vTypeCar" depart="210.00" from="-E8" to="E8"/>
    <trip id="211" type="vTypeCar" depart="211.00" from="-E10" to="E8"/>
    <trip id="212" type="vTypeCar" depart="212.00" from="-E8" to="-E7"/>
    <trip id="213" type="vTypeMotorcycle" depart="213.00" from="-E9" to="-E7"/>
    <trip id="214" type="vTypeMotorcycle" depart="214.00" from="E7" to="E9"/>
    <trip id="215" type="vTypeMotorcycle" depart="215.00" from="-E10" to="E10"/>
    <trip id="216" type="vTypeCar" depart="216.00" from="-E10" to="E9"/>
    <trip id="217" type="vTypeEmergency" depart="217.00" from="-E9" to="-E7"/>
    <trip id="218" type="vTypeCar" depart="218.00" from="-E10" to="E9"/>
    <trip id="219" type="vTypeCar" depart="219.00" from="-E8" to="E9"/>
    <trip id="220" type="vTypeCar" depart="220.00" from="-E9" to="E9"/>
    <trip id="221" type="vTypeCar" depart="221.00" from="-E9" to="E9"/>
    <trip id="222" type="vTypeCar" depart="222.00" from="E7" to="E8"/>
    <trip id="223" type="vTypeCar" depart="223.00" from="-E9" to="E8"/>
    <trip id="224" type="vTypeCar" depart="224.00" from="E7" to="E8"/>
    <trip id="225" type="vTypeEmergency" depart="225.00" from="E7" to="E8"/>
    <trip id="226" type="vTypeEmergency" depart="226.00" from="-E8" to="E10"/>
    <trip id="227" type="vTypeCar" depart="227.00" from="-E10" to="E8"/>
    <trip id="228" type="vTypeEmergency" depart="228.00" from="E7" to="E8"/>
    <trip id="229" type="vTypeCar" depart="229.00" from="-E9" to="E10"/>
    <trip id="230" type="vTypeCar" depart="230.00" from="-E10" to="E10"/>
    <trip id="231" type="vTypeCar" depart="231.00" from="-E8" to="E10"/>
    <trip id="232" type="vTypeCar" depart="232.00" from="-E9" to="-E7"/>
    <trip id="233" type="vTypeCar" depart="233.00" from="-E10" to="E8"/>
    <trip id="234" type="vTypeCar" depart="234.00" from="-E9" to="-E7"/>
    <trip id="235" type="vTypeMotorcycle" depart="235.00" from="-E8" to="E8"/>
    <trip id="236" type="vTypeBus" depart="236.00" from="-E8" to="-E7"/>
    <trip id="237" type="vTypeCar" depart="237.00" from="-E8" to="E9"/>
    <trip id="238" type="vTypeEmergency" depart="238.00" from="-E9" to="E8"/>
    <trip id="239" type="vTypeCar" depart="239.00" from="E7" to="E9"/>
    <trip id="240" type="vTypeCar" depart="240.00" from="-E8" to="-E7"/>
    <trip id="241" type="vTypeCar" depart="241.00" from="-E8" to="E9"/>
    <trip id="242" type="vTypeCar" depart="242.00" from="E7" to="E9"/>
    <trip id="243" type="vTypeCar" depart="243.00" from="-E8" to="E8"/>
    <trip id="244" type="vTypeCar" depart="244.00" from="-E9" to="E8"/>
    <trip id="245" type="vTypeCar" depart="245.00" from="-E10" to="-E7"/>
    <trip id="246" type="vTypeEmergency" depart="246.00" from="-E8" to="-E7"/>
    <trip id="247" type="vTypeCar" depart="247.00" from="-E8" to="E8"/>
    <trip id="248" type="vTypeCar" depart="248.00" from="-E8" to="-E7"/>
    <trip id="249" type="vTypeCar" depart="249.00" from="-E8" to="-E7"/>
    <trip id="250" type="vTypeCar" depart="250.00" from="-E9" to="-E7"/>
    <trip id="251" type="vTypeMotorcycle" depart="251.00" from="-E8" to="E8"/>
    <trip id="252" type="vTypeCar" depart="252.00" from="-E10" to="E8"/>
    <trip id="253" type="vTypeCar" depart="253.00" from="-E10" to="E10"/>
    <trip id="254" type="vTypeCar" depart="254.00" from="-E10" to="E10"/>
    <trip id="255" type="vTypeCar" depart="255.00" from="-E10" to="E10"/>
    <trip id="256" type="vTypeMotorcycle" depart="256.00" from="E7" to="E10"/>
    <trip id="257" type="vTypeMotorcycle" depart="257.00" from="E7" to="E9"/>
    <trip id="258" type="vTypeCar" depart="258.00" from="-E8" to="-E7"/>
    <trip id="259" type="vTypeCar" depart="259.00" from="-E10" to="E8"/>
    <trip id="260" type="vTypeCar" depart="260.00" from="E7" to="E10"/>
    <trip id="261" type="vTypeBus" depart="261.00" from="-E9" to="E9"/>
    <trip id="262" type="vTypeCar" depart="262.00" from="-E9" to="E9"/>
    <trip id="263" type="vTypeCar" depart="263.00" from="E7" to="-E7"/>
    <trip id="264" type="vTypeCar" depart="264.00" from="-E10" to="-E7"/>
    <trip id="265" type="vTypeCar" depart="265.00" from="-E10" to="E8"/>
    <trip id="266" type="vTypeMotorcycle" depart="266.00" from="-E9" to="-E7"/>
    <trip id="267" type="vTypeCar" depart="267.00" from="-E9" to="E9"/>
    <trip id="268" type="vTypeEmergency" depart="268.00" from="-E10" to="E8"/>
    <trip id="269" type="vTypeBus" depart="269.00" from="-E9" to="-E7"/>
    <trip id="270" type="vTypeMotorcycle" depart="270.00" from="E7" to="E9"/>
    <trip id="271" type="vTypeCar" depart="271.00" from="-E10" to="-E7"/>
    <trip id="272" type="vTypeEmergency" depart="272.00" from="-E8" to="E8"/>
    <trip id="273" type="vTypeMotorcycle" depart="273.00" from="E7" to="E10"/>
    <trip id="274" type="vTypeCar" depart="274.00" from="-E9" to="-E7"/>
    <trip id="275" type="vTypeCar" depart="275.00" from="-E9" to="E8"/>
    <trip id="276" type="vTypeEmergency" depart="276.00" from="-E10" to="E9"/>
    <trip id="277" type="vTypeMotorcycle" depart="277.00" from="E7" to="E8"/>
    <trip id="278" type="vTypeMotorcycle" depart="278.00" from="-E10" to="E9"/>
    <trip id="279" type="vTypeMotorcycle" depart="279.00" from="E7" to="E10"/>
    <trip id="280" type="vTypeCar" depart="280.00" from="-E8" to="E10"/>
    <trip id="281" type="vTypeCar" depart="281.00" from="-E9" to="E10"/>
    <trip id="282" type="vTypeCar" depart="282.00" from="E7" to="E9"/>
    <trip id="283" type="vTypeCar" depart="283.00" from="-E10" to="E9"/>
    <trip id="284" type="vTypeCar" depart="284.00" from="-E9" to="E9"/>
    <trip id="285" type="vTypeCar" depart="285.00" from="-E9" to="E10"/>
    <trip id="286" type="vTypeBus" depart="286.00" from="-E9" to="E9"/>
    <trip id="287" type="vTypeMotorcycle" depart="287.00" from="-E8" to="E9"/>
    <trip id="288" type="vTypeEmergency" depart="288.00" from="-E9" to="E10"/>
    <trip id="289" type="vTypeCar" depart="289.00" from="-E8" to="E8"/>
    <trip id="290" type="vTypeBus" depart="290.00" from="-E8" to="E9"/>
    <trip id="291" type="vTypeCar" depart="291.00" from="E7" to="-E7"/>
    <trip id="292" type="vTypeCar" depart="292.00" from="E7" to="-E7"/>
    <trip id="293" type="vTypeCar" depart="293.00" from="-E8" to="E8"/>
    <trip id="294" type="vTypeEmergency" depart="294.00" from="-E8" to="-E7"/>
    <trip id="295" type="vTypeEmergency" depart="295.00" from="E7" to="-E7"/>
    <trip id="296" type="vTypeMotorcycle" depart="296.00" from="-E10" to="E9"/>
    <trip id="297" type="vTypeCar" depart="297.00" from="-E8" to="E9"/>
    <trip id="298" type="vTypeCar" depart="298.00" from="-E9" to="E10"/>
    <trip id="299" type="vTypeEmergency" depart="299.00" from="-E10" to="E9"/>
    <trip id="300" type="vTypeEmergency" depart="300.00" from="-E10" to="E8"/>
    <trip id="301" type="vTypeMotorcycle" depart="301.00" from="-E8" to="E9"/>
    <trip id="302" type="vTypeMotorcycle" depart="302.00" from="-E9" to="E8"/>
    <trip id="303" type="vTypeCar" depart="303.00" from="-E8" to="E9"/>
    <trip id="304" type="vTypeCar" depart="304.00" from="-E10" to="-E7"/>
    <trip id="305" type="vTypeEmergency" depart="305.00" from="-E9" to="E10"/>
    <trip id="306" type="vTypeBus" depart="306.00" from="-E9" to="E10"/>
    <trip id="307" type="vTypeCar" depart="307.00" from="-E9" to="E10"/>
    <trip id="308" type="vTypeCar" depart="308.00" from="-E9" to="E10"/>
    <trip id="309" type="vTypeBus" depart="309.00" from="-E9" to="E10"/>
    <trip id="310" type="vTypeCar" depart="310.00" from="-E8" to="-E7"/>
    <trip id="311" type="vTypeCar" depart="311.00" from="-E10" to="-E7"/>
    <trip id="312" type="vTypeEmergency" depart="312.00" from="-E9" to="E9"/>
    <trip id="313" type="vTypeBus" depart="313.00" from="-E10" to="-E7"/>
    <trip id="314" type="vTypeCar" depart="314.00" from="-E8" to="E8"/>
    <trip id="315" type="vTypeCar" depart="315.00" from="E7" to="E8"/>
    <trip id="316" type="vTypeCar" depart="316.00" from="-E8" to="-E7"/>
    <trip id="317" type="vTypeCar" depart="317.00" from="-E10" to="-E7"/>
    <trip id="318" type="vTypeCar" depart="318.00" from="-E10" to="-E7"/>
    <trip id="319" type="vTypeCar" depart="319.00" from="-E9" to="E10"/>
    <trip id="320" type="vTypeMotorcycle" depart="320.00" from="E7" to="E8"/>
    <trip id="321" type="vTypeMotorcycle" depart="321.00" from="-E9" to="-E7"/>
    <trip id="322" type="vTypeBus" depart="322.00" from="E7" to="E10"/>
    <trip id="323" type="vTypeCar" depart="323.00" from="E7" to="E8"/>
    <trip id="324" type="vTypeMotorcycle" depart="324.00" from="-E8" to="E10"/>
    <trip id="325" type="vTypeBus" depart="325.00" from="-E10" to="-E7"/>
    <trip id="326" type="vTypeCar" depart="326.00" from="E7" to="E10"/>
    <trip id="327" type="vTypeCar" depart="327.00" from="E7" to="E10"/>
    <trip id="328" type="vTypeMotorcycle" depart="328.00" from="-E10" to="E8"/>
    <trip id="329" type="vTypeCar" depart="329.00" from="-E10" to="-E7"/>
    <trip id="330" type="vTypeBus" depart="330.00" from="-E9" to="E10"/>
    <trip id="331" type="vTypeCar" depart="331.00" from="E7" to="-E7"/>
    <trip id="332" type="vTypeCar" depart="332.00" from="E7" to="E8"/>
    <trip id="333" type="vTypeCar" depart="333.00" from="E7" to="-E7"/>
    <trip id="334" type="vTypeCar" depart="334.00" from="-E9" to="E10"/>
    <trip id="335" type="vTypeCar" depart="335.00" from="-E8" to="E9"/>
    <trip id="336" type="vTypeCar" depart="336.00" from="E7" to="E10"/>
    <trip id="337" type="vTypeCar" depart="337.00" from="-E9" to="E8"/>
    <trip id="338" type="vTypeBus" depart="338.00" from="-E9" to="E9"/>
    <trip id="339" type="vTypeCar" depart="339.00" from="-E10" to="-E7"/>
    <trip id="340" type="vTypeEmergency" depart="340.00" from="-E9" to="-E7"/>
    <trip id="341" type="vTypeEmergency" depart="341.00" from="-E10" to="-E7"/>
    <trip id="342" type="vTypeCar" depart="342.00" from="-E10" to="E10"/>
    <trip id="343" type="vTypeBus" depart="343.00" from="-E9" to="E10"/>
    <trip id="344" type="vTypeCar" depart="344.00" from="-E10" to="E8"/>
    <trip id="345" type="vTypeCar" depart="345.00" from="-E9" to="E10"/>
    <trip id="346" type="vTypeCar" depart="346.00" from="-E9" to="E9"/>
    <trip id="347" type="vTypeCar" depart="347.00" from="E7" to="E8"/>
    <trip id="348" type="vTypeBus" depart="348.00" from="-E9" to="E9"/>
    <trip id="349" type="vTypeCar" depart="349.00" from="-E8" to="E8"/>
    <trip id="350" type="vTypeCar" depart="350.00" from="-E9" to="E9"/>
    <trip id="351" type="vTypeCar" depart="351.00" from="E7" to="-E7"/>
    <trip id="352" type="vTypeCar" depart="352.00" from="-E10" to="E10"/>
    <trip id="353" type="vTypeEmergency" depart="353.00" from="-E9" to="E8"/>
    <trip id="354" type="vTypeEmergency" depart="354.00" from="-E8" to="-E7"/>
    <trip id="355" type="vTypeMotorcycle" depart="355.00" from="-E9" to="E8"/>
    <trip id="356" type="vTypeBus" depart="356.00" from="E7" to="E8"/>
    <trip id="357" type="vTypeEmergency" depart="357.00" from="-E8" to="-E7"/>
    <trip id="358" type="vTypeMotorcycle" depart="358.00" from="-E10" to="E10"/>
    <trip id="359" type="vTypeCar" depart="359.00" from="-E8" to="E10"/>
    <trip id="360" type="vTypeMotorcycle" depart="360.00" from="-E10" to="E9"/>
    <trip id="361" type="vTypeCar" depart="361.00" from="E7" to="E8"/>
    <trip id="362" type="vTypeCar" depart="362.00" from="E7" to="E9"/>
    <trip id="363" type="vTypeBus" depart="363.00" from="-E9" to="E10"/>
    <trip id="364" type="vTypeMotorcycle" depart="364.00" from="-E10" to="E9"/>
    <trip id="365" type="vTypeCar" depart="365.00" from="-E8" to="E8"/>
    <trip id="366" type="vTypeBus" depart="366.00" from="E7" to="-E7"/>
    <trip id="367" type="vTypeCar" depart="367.00" from="-E9" to="E8"/>
    <trip id="368" type="vTypeCar" depart="368.00" from="-E8" to="-E7"/>
    <trip id="369" type="vTypeCar" depart="369.00" from="-E8" to="E10"/>
    <trip id="370" type="vTypeCar" depart="370.00" from="-E9" to="E9"/>
    <trip id="371" type="vTypeMotorcycle" depart="371.00" from="-E8" to="E8"/>
    <trip id="372" type="vTypeBus" depart="372.00" from="-E8" to="E9"/>
    <trip id="373" type="vTypeCar" depart="373.00" from="E7" to="E8"/>
    <trip id="374" type="vTypeCar" depart="374.00" from="-E8" to="E10"/>
    <trip id="375" type="vTypeCar" depart="375.00" from="-E8" to="E9"/>
    <trip id="376" type="vTypeEmergency" depart="376.00" from="-E8" to="E8"/>
    <trip id="377" type="vTypeEmergency" depart="377.00" from="E7" to="E8"/>
    <trip id="378" type="vTypeMotorcycle" depart="378.00" from="-E9" to="E10"/>
    <trip id="379" type="vTypeMotorcycle" depart="379.00" from="-E10" to="E10"/>
    <trip id="380" type="vTypeMotorcycle" depart="380.00" from="E7" to="E8"/>