<?xml version="1.0" encoding="UTF-8"?>

<!-- generated on 2023-02-15 20:11:34.510700 by randomTrips.py v1_14_1+0000-f654d7b963e
<configuration>
    <additional-files value="./intersection/default\vehicles.add.vtype.xml"/>
    <end value="5400"/>
    <net-file value="./intersection/default\environment.net.xml"/>
    <random-depart value="True"/>
    <route-file value="./intersection/default\episode_routes.rou.xml"/>
    <seed value="10000"/>
    <trip-attributes value="type=&quot;typedist1&quot;"/>
    <output-trip-file value="./intersection/default\trips.trips.xml"/>
    <validate value="True"/>
</configuration>
-->

<!-- generated on 2023-02-15 20:11:34 by Eclipse SUMO duarouter Version 1.14.1
<configuration xmlns:xsi="http://www.w3.org/2001/XMLSchema-instance" xsi:noNamespaceSchemaLocation="http://sumo.dlr.de/xsd/duarouterConfiguration.xsd">

    <input>
        <net-file value="./intersection/default\environment.net.xml"/>
        <additional-files value="./intersection/default\vehicles.add.vtype.xml"/>
        <route-files value="./intersection/default\trips.trips.xml"/>
    </input>

    <output>
        <output-file value="./intersection/default\episode_routes.rou.xml"/>
        <alternatives-output value="NUL"/>
    </output>

    <time>
        <begin value="0"/>
        <end value="5400"/>
    </time>

    <report>
        <no-warnings value="true"/>
        <ignore-errors value="true"/>
        <no-step-log value="true"/>
    </report>

</configuration>
-->

<routes xmlns:xsi="http://www.w3.org/2001/XMLSchema-instance" xsi:noNamespaceSchemaLocation="http://sumo.dlr.de/xsd/routes_file.xsd">
    <vType id="vTypeMotorcycle" probability="0.78" vClass="motorcycle" guiShape="motorcycle"/>
    <vehicle id="0" type="vTypeMotorcycle" depart="0.00">
        <route edges="E2TL TL2W"/>
    </vehicle>
    <vehicle id="1" type="vTypeMotorcycle" depart="1.00">
        <route edges="E2TL TL2W"/>
    </vehicle>
    <vehicle id="3" type="vTypeMotorcycle" depart="2.00">
        <route edges="W2TL TL2E"/>
    </vehicle>
    <vehicle id="4" type="vTypeMotorcycle" depart="2.00">
        <route edges="W2TL TL2E"/>
    </vehicle>
    <vType id="vTypeCar" probability="0.21" vClass="passenger" guiShape="passenger"/>
    <vehicle id="5" type="vTypeCar" depart="2.00">
        <route edges="W2TL TL2E"/>
    </vehicle>
    <vehicle id="6" type="vTypeMotorcycle" depart="5.00">
        <route edges="N2TL TL2S"/>
    </vehicle>
    <vehicle id="7" type="vTypeMotorcycle" depart="5.00">
        <route edges="N2TL TL2S"/>
    </vehicle>
    <vehicle id="10" type="vTypeCar" depart="7.00">
        <route edges="W2TL TL2E"/>
    </vehicle>
    <vehicle id="11" type="vTypeMotorcycle" depart="8.00">
        <route edges="E2TL TL2W"/>
    </vehicle>
    <vehicle id="12" type="vTypeMotorcycle" depart="9.00">
        <route edges="E2TL TL2S"/>
    </vehicle>
    <vehicle id="13" type="vTypeMotorcycle" depart="10.00">
        <route edges="S2TL TL2W"/>
    </vehicle>
    <vehicle id="15" type="vTypeMotorcycle" depart="11.00">
        <route edges="N2TL TL2E"/>
    </vehicle>
    <vehicle id="16" type="vTypeCar" depart="12.00">
        <route edges="W2TL TL2N"/>
    </vehicle>
    <vehicle id="17" type="vTypeMotorcycle" depart="12.00">
        <route edges="S2TL TL2W"/>
    </vehicle>
    <vehicle id="19" type="vTypeMotorcycle" depart="13.00">
        <route edges="N2TL TL2W"/>
    </vehicle>
    <vehicle id="20" type="vTypeCar" depart="14.00">
        <route edges="W2TL TL2E"/>
    </vehicle>
    <vehicle id="21" type="vTypeMotorcycle" depart="15.00">
        <route edges="E2TL TL2N"/>
    </vehicle>
    <vehicle id="22" type="vTypeMotorcycle" depart="16.00">
        <route edges="S2TL TL2N"/>
    </vehicle>
    <vehicle id="25" type="vTypeMotorcycle" depart="16.00">
        <route edges="S2TL TL2E"/>
    </vehicle>
    <vehicle id="26" type="vTypeMotorcycle" depart="18.00">
        <route edges="E2TL TL2S"/>
    </vehicle>
    <vehicle id="27" type="vTypeMotorcycle" depart="18.00">
        <route edges="S2TL TL2W"/>
    </vehicle>
    <vehicle id="28" type="vTypeMotorcycle" depart="18.00">
        <route edges="W2TL TL2N"/>
    </vehicle>
    <vehicle id="29" type="vTypeMotorcycle" depart="19.00">
        <route edges="S2TL TL2W"/>
    </vehicle>
    <vehicle id="30" type="vTypeCar" depart="19.00">
        <route edges="N2TL TL2S"/>
    </vehicle>
    <vehicle id="31" type="vTypeMotorcycle" depart="19.00">
        <route edges="S2TL TL2W"/>
    </vehicle>
    <vehicle id="32" type="vTypeMotorcycle" depart="20.00">
        <route edges="E2TL TL2S"/>
    </vehicle>
    <vehicle id="33" type="vTypeCar" depart="20.00">
        <route edges="N2TL TL2E"/>
    </vehicle>
    <vehicle id="34" type="vTypeMotorcycle" depart="21.00">
        <route edges="S2TL TL2W"/>
    </vehicle>
    <vehicle id="35" type="vTypeCar" depart="22.00">
        <route edges="E2TL TL2N"/>
    </vehicle>
    <vehicle id="36" type="vTypeMotorcycle" depart="23.00">
        <route edges="E2TL TL2N"/>
    </vehicle>
    <vehicle id="38" type="vTypeCar" depart="27.00">
        <route edges="S2TL TL2N"/>
    </vehicle>
    <vehicle id="39" type="vTypeCar" depart="28.00">
        <route edges="N2TL TL2S"/>
    </vehicle>
    <vehicle id="40" type="vTypeMotorcycle" depart="30.00">
        <route edges="E2TL TL2W"/>
    </vehicle>
    <vehicle id="41" type="vTypeMotorcycle" depart="30.00">
        <route edges="N2TL TL2E"/>
    </vehicle>
    <vehicle id="42" type="vTypeMotorcycle" depart="30.00">
        <route edges="E2TL TL2N"/>
    </vehicle>
    <vehicle id="43" type="vTypeMotorcycle" depart="31.00">
        <route edges="E2TL TL2S"/>
    </vehicle>
    <vehicle id="44" type="vTypeCar" depart="31.00">
        <route edges="W2TL TL2E"/>
    </vehicle>
    <vehicle id="45" type="vTypeMotorcycle" depart="31.00">
        <route edges="S2TL TL2W"/>
    </vehicle>
    <vehicle id="46" type="vTypeMotorcycle" depart="33.00">
        <route edges="N2TL TL2E"/>
    </vehicle>
    <vehicle id="47" type="vTypeMotorcycle" depart="35.00">
        <route edges="W2TL TL2N"/>
    </vehicle>
    <vehicle id="48" type="vTypeCar" depart="36.00">
        <route edges="W2TL TL2S"/>
    </vehicle>
    <vehicle id="49" type="vTypeMotorcycle" depart="36.00">
        <route edges="E2TL TL2W"/>
    </vehicle>
    <vehicle id="50" type="vTypeMotorcycle" depart="37.00">
        <route edges="S2TL TL2N"/>
    </vehicle>
    <vehicle id="51" type="vTypeMotorcycle" depart="37.00">
        <route edges="E2TL TL2W"/>
    </vehicle>
    <vehicle id="52" type="vTypeMotorcycle" depart="38.00">
        <route edges="E2TL TL2S"/>
    </vehicle>
    <vehicle id="54" type="vTypeMotorcycle" depart="38.00">
        <route edges="N2TL TL2S"/>
    </vehicle>
    <vehicle id="55" type="vTypeMotorcycle" depart="41.00">
        <route edges="N2TL TL2E"/>
    </vehicle>
    <vehicle id="57" type="vTypeMotorcycle" depart="44.00">
        <route edges="E2TL TL2S"/>
    </vehicle>
    <vehicle id="59" type="vTypeMotorcycle" depart="45.00">
        <route edges="E2TL TL2W"/>
    </vehicle>
    <vehicle id="60" type="vTypeCar" depart="46.00">
        <route edges="N2TL TL2W"/>
    </vehicle>
    <vehicle id="61" type="vTypeMotorcycle" depart="47.00">
        <route edges="E2TL TL2N"/>
    </vehicle>
    <vehicle id="62" type="vTypeCar" depart="47.00">
        <route edges="N2TL TL2S"/>
    </vehicle>
    <vehicle id="63" type="vTypeCar" depart="48.00">
        <route edges="E2TL TL2N"/>
    </vehicle>
    <vehicle id="64" type="vTypeMotorcycle" depart="49.00">
        <route edges="E2TL TL2N"/>
    </vehicle>
    <vehicle id="65" type="vTypeMotorcycle" depart="50.00">
        <route edges="W2TL TL2E"/>
    </vehicle>
    <vehicle id="67" type="vTypeCar" depart="51.00">
        <route edges="N2TL TL2S"/>
    </vehicle>
    <vehicle id="68" type="vTypeCar" depart="52.00">
        <route edges="S2TL TL2N"/>
    </vehicle>
    <vehicle id="70" type="vTypeMotorcycle" depart="54.00">
        <route edges="E2TL TL2N"/>
    </vehicle>
    <vehicle id="71" type="vTypeMotorcycle" depart="55.00">
        <route edges="N2TL TL2W"/>
    </vehicle>
    <vehicle id="72" type="vTypeCar" depart="55.00">
        <route edges="S2TL TL2E"/>
    </vehicle>
    <vehicle id="73" type="vTypeMotorcycle" depart="56.00">
        <route edges="S2TL TL2W"/>
    </vehicle>
    <vehicle id="74" type="vTypeMotorcycle" depart="60.00">
        <route edges="E2TL TL2S"/>
    </vehicle>
    <vehicle id="75" type="vTypeCar" depart="60.00">
        <route edges="W2TL TL2N"/>
    </vehicle>
    <vehicle id="76" type="vTypeCar" depart="61.00">
        <route edges="S2TL TL2N"/>
    </vehicle>
    <vehicle id="77" type="vTypeCar" depart="63.00">
        <route edges="E2TL TL2N"/>
    </vehicle>
    <vehicle id="78" type="vTypeMotorcycle" depart="63.00">
        <route edges="N2TL TL2E"/>
    </vehicle>
    <vehicle id="79" type="vTypeMotorcycle" depart="64.00">
        <route edges="W2TL TL2E"/>
    </vehicle>
    <vehicle id="80" type="vTypeMotorcycle" depart="65.00">
        <route edges="S2TL TL2W"/>
    </vehicle>
    <vehicle id="81" type="vTypeMotorcycle" depart="65.00">
        <route edges="S2TL TL2E"/>
    </vehicle>
    <vehicle id="82" type="vTypeMotorcycle" depart="67.00">
        <route edges="N2TL TL2E"/>
    </vehicle>
    <vehicle id="83" type="vTypeMotorcycle" depart="67.00">
        <route edges="N2TL TL2W"/>
    </vehicle>
    <vehicle id="84" type="vTypeMotorcycle" depart="69.00">
        <route edges="N2TL TL2S"/>
    </vehicle>
    <vehicle id="85" type="vTypeMotorcycle" depart="69.00">
        <route edges="E2TL TL2S"/>
    </vehicle>
    <vehicle id="86" type="vTypeMotorcycle" depart="69.00">
        <route edges="E2TL TL2W"/>
    </vehicle>
    <vehicle id="87" type="vTypeMotorcycle" depart="70.00">
        <route edges="W2TL TL2N"/>
    </vehicle>
    <vehicle id="88" type="vTypeMotorcycle" depart="74.00">
        <route edges="W2TL TL2N"/>
    </vehicle>
    <vehicle id="91" type="vTypeMotorcycle" depart="78.00">
        <route edges="W2TL TL2S"/>
    </vehicle>
    <vehicle id="92" type="vTypeCar" depart="79.00">
        <route edges="W2TL TL2E"/>
    </vehicle>
    <vehicle id="94" type="vTypeCar" depart="80.00">
        <route edges="S2TL TL2W"/>
    </vehicle>
    <vehicle id="95" type="vTypeMotorcycle" depart="81.00">
        <route edges="E2TL TL2N"/>
    </vehicle>
    <vehicle id="96" type="vTypeMotorcycle" depart="82.00">
        <route edges="E2TL TL2N"/>
    </vehicle>
    <vehicle id="97" type="vTypeMotorcycle" depart="82.00">
        <route edges="E2TL TL2S"/>
    </vehicle>
    <vehicle id="98" type="vTypeMotorcycle" depart="82.00">
        <route edges="E2TL TL2W"/>
    </vehicle>
    <vehicle id="99" type="vTypeMotorcycle" depart="83.00">
        <route edges="W2TL TL2N"/>
    </vehicle>
    <vehicle id="100" type="vTypeMotorcycle" depart="83.00">
        <route edges="S2TL TL2W"/>
    </vehicle>
    <vehicle id="102" type="vTypeMotorcycle" depart="88.00">
        <route edges="N2TL TL2W"/>
    </vehicle>
    <vehicle id="103" type="vTypeMotorcycle" depart="88.00">
        <route edges="N2TL TL2W"/>
    </vehicle>
    <vehicle id="104" type="vTypeMotorcycle" depart="89.00">
        <route edges="S2TL TL2N"/>
    </vehicle>
    <vehicle id="107" type="vTypeMotorcycle" depart="91.00">
        <route edges="S2TL TL2W"/>
    </vehicle>
    <vehicle id="109" type="vTypeCar" depart="92.00">
        <route edges="S2TL TL2N"/>
    </vehicle>
    <vehicle id="110" type="vTypeMotorcycle" depart="94.00">
        <route edges="N2TL TL2S"/>
    </vehicle>
    <vehicle id="113" type="vTypeMotorcycle" depart="97.00">
        <route edges="W2TL TL2S"/>
    </vehicle>
    <vehicle id="114" type="vTypeMotorcycle" depart="97.00">
        <route edges="N2TL TL2S"/>
    </vehicle>
    <vehicle id="116" type="vTypeMotorcycle" depart="98.00">
        <route edges="E2TL TL2W"/>
    </vehicle>
    <vehicle id="117" type="vTypeCar" depart="102.00">
        <route edges="E2TL TL2S"/>
    </vehicle>
    <vehicle id="118" type="vTypeMotorcycle" depart="103.00">
        <route edges="W2TL TL2E"/>
    </vehicle>
    <vehicle id="125" type="vTypeMotorcycle" depart="107.00">
        <route edges="E2TL TL2N"/>
    </vehicle>
    <vehicle id="126" type="vTypeCar" depart="108.00">
        <route edges="W2TL TL2E"/>
    </vehicle>
    <vehicle id="127" type="vTypeMotorcycle" depart="109.00">
        <route edges="E2TL TL2N"/>
    </vehicle>
    <vehicle id="128" type="vTypeMotorcycle" depart="109.00">
        <route edges="E2TL TL2S"/>
    </vehicle>
    <vehicle id="129" type="vTypeMotorcycle" depart="110.00">
        <route edges="N2TL TL2W"/>
    </vehicle>
    <vehicle id="130" type="vTypeMotorcycle" depart="112.00">
        <route edges="N2TL TL2W"/>
    </vehicle>
    <vehicle id="131" type="vTypeMotorcycle" depart="113.00">
        <route edges="E2TL TL2S"/>
    </vehicle>
    <vehicle id="132" type="vTypeMotorcycle" depart="114.00">
        <route edges="N2TL TL2W"/>
    </vehicle>
    <vehicle id="134" type="vTypeMotorcycle" depart="114.00">
        <route edges="S2TL TL2E"/>
    </vehicle>
    <vehicle id="135" type="vTypeMotorcycle" depart="117.00">
        <route edges="N2TL TL2S"/>
    </vehicle>
    <vehicle id="136" type="vTypeMotorcycle" depart="117.00">
        <route edges="S2TL TL2E"/>
    </vehicle>
    <vehicle id="138" type="vTypeMotorcycle" depart="118.00">
        <route edges="W2TL TL2S"/>
    </vehicle>
    <vehicle id="139" type="vTypeMotorcycle" depart="118.00">
        <route edges="S2TL TL2E"/>
    </vehicle>
    <vehicle id="141" type="vTypeMotorcycle" depart="121.00">
        <route edges="E2TL TL2W"/>
    </vehicle>
    <vehicle id="144" type="vTypeMotorcycle" depart="124.00">
        <route edges="S2TL TL2N"/>
    </vehicle>
    <vehicle id="145" type="vTypeMotorcycle" depart="125.00">
        <route edges="N2TL TL2S"/>
    </vehicle>
    <vehicle id="147" type="vTypeMotorcycle" depart="127.00">
        <route edges="E2TL TL2N"/>
    </vehicle>
    <vehicle id="148" type="vTypeCar" depart="128.00">
        <route edges="E2TL TL2S"/>
    </vehicle>
    <vehicle id="150" type="vTypeMotorcycle" depart="129.00">
        <route edges="W2TL TL2S"/>
    </vehicle>
    <vehicle id="151" type="vTypeMotorcycle" depart="130.00">
        <route edges="N2TL TL2W"/>
    </vehicle>
    <vehicle id="152" type="vTypeMotorcycle" depart="131.00">
        <route edges="S2TL TL2W"/>
    </vehicle>
    <vehicle id="153" type="vTypeCar" depart="132.00">
        <route edges="N2TL TL2W"/>
    </vehicle>
    <vehicle id="154" type="vTypeMotorcycle" depart="139.00">
        <route edges="S2TL TL2W"/>
    </vehicle>
    <vehicle id="155" type="vTypeMotorcycle" depart="139.00">
        <route edges="E2TL TL2W"/>
    </vehicle>
    <vehicle id="156" type="vTypeCar" depart="140.00">
        <route edges="E2TL TL2W"/>
    </vehicle>
    <vehicle id="158" type="vTypeMotorcycle" depart="142.00">
        <route edges="N2TL TL2W"/>
    </vehicle>
    <vehicle id="160" type="vTypeCar" depart="142.00">
        <route edges="S2TL TL2E"/>
    </vehicle>
    <vehicle id="161" type="vTypeMotorcycle" depart="142.00">
        <route edges="N2TL TL2W"/>
    </vehicle>
    <vehicle id="162" type="vTypeMotorcycle" depart="143.00">
        <route edges="S2TL TL2E"/>
    </vehicle>
    <vehicle id="163" type="vTypeMotorcycle" depart="143.00">
        <route edges="W2TL TL2E"/>
    </vehicle>
    <vType id="vTypeTruck" probability="0.01" vClass="trailer" guiShape="truck"/>
    <vehicle id="164" type="vTypeTruck" depart="143.00">
        <route edges="W2TL TL2S"/>
    </vehicle>
    <vehicle id="165" type="vTypeMotorcycle" depart="144.00">
        <route edges="S2TL TL2N"/>
    </vehicle>
    <vehicle id="166" type="vTypeMotorcycle" depart="145.00">
        <route edges="S2TL TL2N"/>
    </vehicle>
    <vehicle id="167" type="vTypeMotorcycle" depart="147.00">
        <route edges="S2TL TL2W"/>
    </vehicle>
    <vehicle id="168" type="vTypeMotorcycle" depart="148.00">
        <route edges="E2TL TL2S"/>
    </vehicle>
    <vehicle id="170" type="vTypeMotorcycle" depart="148.00">
        <route edges="E2TL TL2N"/>
    </vehicle>
    <vehicle id="171" type="vTypeMotorcycle" depart="149.00">
        <route edges="S2TL TL2E"/>
    </vehicle>
    <vehicle id="172" type="vTypeCar" depart="149.00">
        <route edges="W2TL TL2E"/>
    </vehicle>
    <vehicle id="173" type="vTypeMotorcycle" depart="149.00">
        <route edges="E2TL TL2S"/>
    </vehicle>
    <vehicle id="174" type="vTypeMotorcycle" depart="149.00">
        <route edges="W2TL TL2N"/>
    </vehicle>
    <vehicle id="176" type="vTypeMotorcycle" depart="155.00">
        <route edges="S2TL TL2W"/>
    </vehicle>
    <vehicle id="177" type="vTypeMotorcycle" depart="157.00">
        <route edges="S2TL TL2E"/>
    </vehicle>
    <vehicle id="178" type="vTypeMotorcycle" depart="158.00">
        <route edges="W2TL TL2E"/>
    </vehicle>
    <vehicle id="179" type="vTypeCar" depart="160.00">
        <route edges="S2TL TL2W"/>
    </vehicle>
    <vehicle id="180" type="vTypeMotorcycle" depart="160.00">
        <route edges="S2TL TL2N"/>
    </vehicle>
    <vehicle id="181" type="vTypeCar" depart="161.00">
        <route edges="E2TL TL2S"/>
    </vehicle>
    <vehicle id="182" type="vTypeMotorcycle" depart="162.00">
        <route edges="S2TL TL2W"/>
    </vehicle>
    <vehicle id="183" type="vTypeCar" depart="165.00">
        <route edges="E2TL TL2S"/>
    </vehicle>
    <vehicle id="184" type="vTypeCar" depart="166.00">
        <route edges="W2TL TL2S"/>
    </vehicle>
    <vehicle id="185" type="vTypeMotorcycle" depart="167.00">
        <route edges="E2TL TL2N"/>
    </vehicle>
    <vehicle id="186" type="vTypeMotorcycle" depart="168.00">
        <route edges="N2TL TL2W"/>
    </vehicle>
    <vehicle id="187" type="vTypeCar" depart="168.00">
        <route edges="W2TL TL2N"/>
    </vehicle>
    <vehicle id="188" type="vTypeMotorcycle" depart="169.00">
        <route edges="E2TL TL2W"/>
    </vehicle>
    <vehicle id="189" type="vTypeMotorcycle" depart="170.00">
        <route edges="E2TL TL2S"/>
    </vehicle>
    <vehicle id="190" type="vTypeMotorcycle" depart="171.00">
        <route edges="W2TL TL2N"/>
    </vehicle>
    <vehicle id="191" type="vTypeMotorcycle" depart="171.00">
        <route edges="N2TL TL2S"/>
    </vehicle>
    <vehicle id="192" type="vTypeMotorcycle" depart="171.00">
        <route edges="W2TL TL2E"/>
    </vehicle>
    <vehicle id="194" type="vTypeMotorcycle" depart="175.00">
        <route edges="E2TL TL2N"/>
    </vehicle>
    <vehicle id="195" type="vTypeMotorcycle" depart="179.00">
        <route edges="S2TL TL2W"/>
    </vehicle>
    <vehicle id="196" type="vTypeMotorcycle" depart="181.00">
        <route edges="E2TL TL2W"/>
    </vehicle>
    <vehicle id="197" type="vTypeMotorcycle" depart="183.00">
        <route edges="E2TL TL2W"/>
    </vehicle>
    <vehicle id="198" type="vTypeMotorcycle" depart="184.00">
        <route edges="N2TL TL2W"/>
    </vehicle>
    <vehicle id="199" type="vTypeMotorcycle" depart="185.00">
        <route edges="E2TL TL2N"/>
    </vehicle>
    <vehicle id="200" type="vTypeMotorcycle" depart="185.00">
        <route edges="E2TL TL2S"/>
    </vehicle>
    <vehicle id="201" type="vTypeCar" depart="186.00">
        <route edges="S2TL TL2N"/>
    </vehicle>
    <vehicle id="202" type="vTypeMotorcycle" depart="186.00">
        <route edges="E2TL TL2W"/>
    </vehicle>
    <vehicle id="204" type="vTypeMotorcycle" depart="188.00">
        <route edges="S2TL TL2E"/>
    </vehicle>
    <vehicle id="205" type="vTypeMotorcycle" depart="192.00">
        <route edges="N2TL TL2S"/>
    </vehicle>
    <vehicle id="206" type="vTypeMotorcycle" depart="193.00">
        <route edges="S2TL TL2E"/>
    </vehicle>
    <vehicle id="207" type="vTypeCar" depart="194.00">
        <route edges="W2TL TL2S"/>
    </vehicle>
    <vehicle id="208" type="vTypeMotorcycle" depart="196.00">
        <route edges="N2TL TL2E"/>
    </vehicle>
    <vehicle id="209" type="vTypeCar" depart="200.00">
        <route edges="S2TL TL2W"/>
    </vehicle>
    <vehicle id="211" type="vTypeCar" depart="201.00">
        <route edges="W2TL TL2E"/>
    </vehicle>
    <vehicle id="213" type="vTypeMotorcycle" depart="201.00">
        <route edges="E2TL TL2N"/>
    </vehicle>
    <vehicle id="215" type="vTypeMotorcycle" depart="205.00">
        <route edges="S2TL TL2E"/>
    </vehicle>
    <vehicle id="216" type="vTypeCar" depart="206.00">
        <route edges="S2TL TL2E"/>
    </vehicle>
    <vehicle id="218" type="vTypeMotorcycle" depart="206.00">
        <route edges="E2TL TL2N"/>
    </vehicle>
    <vehicle id="219" type="vTypeCar" depart="207.00">
        <route edges="E2TL TL2N"/>
    </vehicle>
    <vehicle id="220" type="vTypeMotorcycle" depart="208.00">
        <route edges="W2TL TL2E"/>
    </vehicle>
    <vehicle id="221" type="vTypeCar" depart="208.00">
        <route edges="W2TL TL2N"/>
    </vehicle>
    <vehicle id="222" type="vTypeMotorcycle" depart="208.00">
        <route edges="S2TL TL2W"/>
    </vehicle>
    <vehicle id="223" type="vTypeMotorcycle" depart="209.00">
        <route edges="N2TL TL2E"/>
    </vehicle>
    <vehicle id="226" type="vTypeMotorcycle" depart="210.00">
        <route edges="N2TL TL2E"/>
    </vehicle>
    <vehicle id="228" type="vTypeMotorcycle" depart="212.00">
        <route edges="E2TL TL2S"/>
    </vehicle>
    <vehicle id="229" type="vTypeMotorcycle" depart="214.00">
        <route edges="S2TL TL2W"/>
    </vehicle>
    <vehicle id="231" type="vTypeMotorcycle" depart="215.00">
        <route edges="E2TL TL2S"/>
    </vehicle>
    <vehicle id="232" type="vTypeMotorcycle" depart="216.00">
        <route edges="W2TL TL2S"/>
    </vehicle>
    <vehicle id="234" type="vTypeMotorcycle" depart="219.00">
        <route edges="S2TL TL2E"/>
    </vehicle>
    <vehicle id="235" type="vTypeMotorcycle" depart="220.00">
        <route edges="E2TL TL2S"/>
    </vehicle>
    <vehicle id="236" type="vTypeMotorcycle" depart="222.00">
        <route edges="S2TL TL2W"/>
    </vehicle>
    <vehicle id="237" type="vTypeMotorcycle" depart="222.00">
        <route edges="N2TL TL2S"/>
    </vehicle>
    <vehicle id="238" type="vTypeMotorcycle" depart="222.00">
        <route edges="S2TL TL2E"/>
    </vehicle>
    <vehicle id="239" type="vTypeMotorcycle" depart="223.00">
        <route edges="E2TL TL2N"/>
    </vehicle>
    <vehicle id="240" type="vTypeCar" depart="225.00">
        <route edges="W2TL TL2S"/>
    </vehicle>
    <vehicle id="241" type="vTypeMotorcycle" depart="227.00">
        <route edges="W2TL TL2N"/>
    </vehicle>
    <vehicle id="242" type="vTypeMotorcycle" depart="227.00">
        <route edges="E2TL TL2W"/>
    </vehicle>
    <vehicle id="243" type="vTypeCar" depart="229.00">
        <route edges="S2TL TL2E"/>
    </vehicle>
    <vehicle id="244" type="vTypeCar" depart="229.00">
        <route edges="N2TL TL2E"/>
    </vehicle>
    <vehicle id="245" type="vTypeCar" depart="232.00">
        <route edges="S2TL TL2N"/>
    </vehicle>
    <vehicle id="246" type="vTypeMotorcycle" depart="233.00">
        <route edges="W2TL TL2E"/>
    </vehicle>
    <vehicle id="247" type="vTypeCar" depart="234.00">
        <route edges="W2TL TL2S"/>
    </vehicle>
    <vehicle id="248" type="vTypeMotorcycle" depart="234.00">
        <route edges="S2TL TL2N"/>
    </vehicle>
    <vehicle id="250" type="vTypeCar" depart="235.00">
        <route edges="E2TL TL2N"/>
    </vehicle>
    <vehicle id="251" type="vTypeMotorcycle" depart="236.00">
        <route edges="S2TL TL2E"/>
    </vehicle>
    <vehicle id="252" type="vTypeMotorcycle" depart="239.00">
        <route edges="S2TL TL2N"/>
    </vehicle>
    <vehicle id="253" type="vTypeMotorcycle" depart="239.00">
        <route edges="E2TL TL2W"/>
    </vehicle>
    <vehicle id="255" type="vTypeMotorcycle" depart="242.00">
        <route edges="W2TL TL2N"/>
    </vehicle>
    <vehicle id="257" type="vTypeMotorcycle" depart="244.00">
        <route edges="N2TL TL2E"/>
    </vehicle>
    <vehicle id="259" type="vTypeMotorcycle" depart="246.00">
        <route edges="S2TL TL2E"/>
    </vehicle>
    <vehicle id="263" type="vTypeCar" depart="248.00">
        <route edges="S2TL TL2E"/>
    </vehicle>
    <vehicle id="266" type="vTypeMotorcycle" depart="250.00">
        <route edges="W2TL TL2S"/>
    </vehicle>
    <vehicle id="267" type="vTypeMotorcycle" depart="250.00">
        <route edges="W2TL TL2S"/>
    </vehicle>
    <vehicle id="269" type="vTypeMotorcycle" depart="252.00">
        <route edges="S2TL TL2W"/>
    </vehicle>
    <vehicle id="270" type="vTypeMotorcycle" depart="253.00">
        <route edges="W2TL TL2E"/>
    </vehicle>
    <vehicle id="271" type="vTypeCar" depart="254.00">
        <route edges="N2TL TL2W"/>
    </vehicle>
    <vehicle id="272" type="vTypeMotorcycle" depart="254.00">
        <route edges="S2TL TL2E"/>
    </vehicle>
    <vehicle id="273" type="vTypeMotorcycle" depart="255.00">
        <route edges="E2TL TL2S"/>
    </vehicle>
    <vehicle id="274" type="vTypeCar" depart="258.00">
        <route edges="S2TL TL2E"/>
    </vehicle>
    <vehicle id="275" type="vTypeMotorcycle" depart="259.00">
        <route edges="S2TL TL2N"/>
    </vehicle>
    <vehicle id="276" type="vTypeMotorcycle" depart="259.00">
        <route edges="E2TL TL2N"/>
    </vehicle>
    <vehicle id="277" type="vTypeMotorcycle" depart="261.00">
        <route edges="N2TL TL2S"/>
    </vehicle>
    <vehicle id="278" type="vTypeMotorcycle" depart="261.00">
        <route edges="E2TL TL2W"/>
    </vehicle>
    <vehicle id="280" type="vTypeCar" depart="262.00">
        <route edges="E2TL TL2S"/>
    </vehicle>
    <vehicle id="282" type="vTypeMotorcycle" depart="262.00">
        <route edges="E2TL TL2W"/>
    </vehicle>
    <vehicle id="283" type="vTypeMotorcycle" depart="264.00">
        <route edges="E2TL TL2W"/>
    </vehicle>
    <vehicle id="284" type="vTypeCar" depart="265.00">
        <route edges="W2TL TL2N"/>
    </vehicle>
    <vehicle id="286" type="vTypeMotorcycle" depart="265.00">
        <route edges="N2TL TL2E"/>
    </vehicle>
    <vehicle id="287" type="vTypeMotorcycle" depart="267.00">
        <route edges="W2TL TL2N"/>
    </vehicle>
    <vehicle id="288" type="vTypeMotorcycle" depart="268.00">
        <route edges="W2TL TL2N"/>
    </vehicle>
    <vehicle id="290" type="vTypeMotorcycle" depart="271.00">
        <route edges="S2TL TL2N"/>
    </vehicle>
    <vehicle id="291" type="vTypeMotorcycle" depart="273.00">
        <route edges="W2TL TL2E"/>
    </vehicle>
    <vehicle id="292" type="vTypeMotorcycle" depart="275.00">
        <route edges="E2TL TL2S"/>
    </vehicle>
    <vehicle id="293" type="vTypeMotorcycle" depart="275.00">
        <route edges="E2TL TL2N"/>
    </vehicle>
    <vehicle id="295" type="vTypeMotorcycle" depart="278.00">
        <route edges="E2TL TL2W"/>
    </vehicle>
    <vehicle id="297" type="vTypeMotorcycle" depart="279.00">
        <route edges="W2TL TL2S"/>
    </vehicle>
    <vehicle id="298" type="vTypeMotorcycle" depart="279.00">
        <route edges="S2TL TL2N"/>
    </vehicle>
    <vehicle id="299" type="vTypeMotorcycle" depart="279.00">
        <route edges="E2TL TL2N"/>
    </vehicle>
    <vehicle id="300" type="vTypeMotorcycle" depart="281.00">
        <route edges="W2TL TL2E"/>
    </vehicle>
    <vehicle id="301" type="vTypeMotorcycle" depart="282.00">
        <route edges="E2TL TL2N"/>
    </vehicle>
    <vehicle id="302" type="vTypeMotorcycle" depart="283.00">
        <route edges="W2TL TL2N"/>
    </vehicle>
    <vehicle id="304" type="vTypeMotorcycle" depart="285.00">
        <route edges="W2TL TL2N"/>
    </vehicle>
    <vehicle id="307" type="vTypeMotorcycle" depart="287.00">
        <route edges="S2TL TL2N"/>
    </vehicle>
    <vehicle id="309" type="vTypeMotorcycle" depart="288.00">
        <route edges="N2TL TL2W"/>
    </vehicle>
    <vehicle id="310" type="vTypeMotorcycle" depart="290.00">
        <route edges="E2TL TL2W"/>
    </vehicle>
    <vehicle id="311" type="vTypeCar" depart="291.00">
        <route edges="E2TL TL2S"/>
    </vehicle>
    <vehicle id="314" type="vTypeCar" depart="295.00">
        <route edges="E2TL TL2N"/>
    </vehicle>
    <vehicle id="315" type="vTypeCar" depart="296.00">
        <route edges="S2TL TL2E"/>
    </vehicle>
    <vehicle id="316" type="vTypeCar" depart="297.00">
        <route edges="S2TL TL2E"/>
    </vehicle>
    <vehicle id="317" type="vTypeMotorcycle" depart="298.00">
        <route edges="E2TL TL2W"/>
    </vehicle>
    <vehicle id="318" type="vTypeCar" depart="298.00">
        <route edges="S2TL TL2N"/>
    </vehicle>
    <vehicle id="319" type="vTypeMotorcycle" depart="300.00">
        <route edges="N2TL TL2S"/>
    </vehicle>
    <vehicle id="320" type="vTypeMotorcycle" depart="301.00">
        <route edges="W2TL TL2S"/>
    </vehicle>
    <vehicle id="322" type="vTypeMotorcycle" depart="303.00">
        <route edges="E2TL TL2W"/>
    </vehicle>
    <vehicle id="323" type="vTypeMotorcycle" depart="304.00">
        <route edges="E2TL TL2W"/>
    </vehicle>
    <vehicle id="324" type="vTypeMotorcycle" depart="306.00">
        <route edges="W2TL TL2S"/>
    </vehicle>
    <vehicle id="325" type="vTypeMotorcycle" depart="307.00">
        <route edges="N2TL TL2S"/>
    </vehicle>
    <vehicle id="326" type="vTypeMotorcycle" depart="308.00">
        <route edges="N2TL TL2W"/>
    </vehicle>
    <vehicle id="327" type="vTypeMotorcycle" depart="309.00">
        <route edges="W2TL TL2S"/>
    </vehicle>
    <vehicle id="328" type="vTypeMotorcycle" depart="310.00">
        <route edges="W2TL TL2E"/>
    </vehicle>
    <vehicle id="330" type="vTypeMotorcycle" depart="313.00">
        <route edges="N2TL TL2E"/>
    </vehicle>