<?xml version="1.0" encoding="UTF-8"?>

<!-- generated on 2023-02-21 19:28:04.685977 by randomTrips.py v1_14_1+0000-f654d7b963e
<configuration>
    <additional-files value="./intersection/indian\vehicles.add.vtype.xml"/>
    <end value="4000"/>
    <net-file value="./intersection/indian\environment.net.xml"/>
    <random-depart value="True"/>
    <route-file value="./intersection/indian\episode_routes.rou.xml"/>
    <seed value="10000"/>
    <trip-attributes value="type=&quot;typedist1&quot;"/>
    <output-trip-file value="./intersection/indian\trips.trips.xml"/>
    <validate value="True"/>
</configuration>
-->

<!-- generated on 2023-02-21 19:28:04 by Eclipse SUMO duarouter Version 1.14.1
<configuration xmlns:xsi="http://www.w3.org/2001/XMLSchema-instance" xsi:noNamespaceSchemaLocation="http://sumo.dlr.de/xsd/duarouterConfiguration.xsd">

    <input>
        <net-file value="./intersection/indian\environment.net.xml"/>
        <additional-files value="./intersection/indian\vehicles.add.vtype.xml"/>
        <route-files value="./intersection/indian\trips.trips.xml"/>
    </input>

    <output>
        <output-file value="./intersection/indian\episode_routes.rou.xml"/>
        <alternatives-output value="NUL"/>
    </output>

    <time>
        <begin value="0"/>
        <end value="4000"/>
    </time>

    <report>
        <no-warnings value="true"/>
        <ignore-errors value="true"/>
        <no-step-log value="true"/>
    </report>

</configuration>
-->

<routes xmlns:xsi="http://www.w3.org/2001/XMLSchema-instance" xsi:noNamespaceSchemaLocation="http://sumo.dlr.de/xsd/routes_file.xsd">
    <vType id="vTypeMotorcycle" probability="0.71" vClass="motorcycle" guiShape="motorcycle"/>
    <vehicle id="0" type="vTypeMotorcycle" depart="0.00">
        <route edges="E2TL TL2S"/>
    </vehicle>
    <vehicle id="1" type="vTypeMotorcycle" depart="1.00">
        <route edges="W2TL TL2E"/>
    </vehicle>
    <vType id="vTypeCar" probability="0.27" vClass="passenger" guiShape="passenger"/>
    <vehicle id="2" type="vTypeCar" depart="2.00">
        <route edges="S2TL TL2N"/>
    </vehicle>
    <vehicle id="5" type="vTypeCar" depart="4.00">
        <route edges="E2TL TL2S"/>
    </vehicle>
    <vehicle id="6" type="vTypeMotorcycle" depart="5.00">
        <route edges="N2TL TL2W"/>
    </vehicle>
    <vehicle id="8" type="vTypeMotorcycle" depart="6.00">
        <route edges="N2TL TL2E"/>
    </vehicle>
    <vehicle id="9" type="vTypeMotorcycle" depart="6.00">
        <route edges="N2TL TL2W"/>
    </vehicle>
    <vehicle id="10" type="vTypeCar" depart="6.00">
        <route edges="S2TL TL2W"/>
    </vehicle>
    <vehicle id="11" type="vTypeMotorcycle" depart="7.00">
        <route edges="S2TL TL2E"/>
    </vehicle>
    <vehicle id="12" type="vTypeMotorcycle" depart="8.00">
        <route edges="W2TL TL2S"/>
    </vehicle>
    <vehicle id="13" type="vTypeMotorcycle" depart="8.00">
        <route edges="W2TL TL2S"/>
    </vehicle>
    <vehicle id="14" type="vTypeMotorcycle" depart="9.00">
        <route edges="N2TL TL2S"/>
    </vehicle>
    <vehicle id="15" type="vTypeCar" depart="9.00">
        <route edges="S2TL TL2E"/>
    </vehicle>
    <vehicle id="17" type="vTypeMotorcycle" depart="10.00">
        <route edges="W2TL TL2E"/>
    </vehicle>
    <vehicle id="19" type="vTypeMotorcycle" depart="11.00">
        <route edges="E2TL TL2S"/>
    </vehicle>
    <vehicle id="20" type="vTypeCar" depart="13.00">
        <route edges="N2TL TL2E"/>
    </vehicle>
    <vehicle id="23" type="vTypeMotorcycle" depart="15.00">
        <route edges="N2TL TL2S"/>
    </vehicle>
    <vehicle id="26" type="vTypeMotorcycle" depart="18.00">
        <route edges="N2TL TL2E"/>
    </vehicle>
    <vehicle id="27" type="vTypeMotorcycle" depart="18.00">
        <route edges="S2TL TL2W"/>
    </vehicle>
    <vehicle id="28" type="vTypeMotorcycle" depart="19.00">
        <route edges="S2TL TL2N"/>
    </vehicle>
    <vehicle id="29" type="vTypeCar" depart="19.00">
        <route edges="W2TL TL2S"/>
    </vehicle>
    <vehicle id="30" type="vTypeCar" depart="22.00">
        <route edges="W2TL TL2S"/>
    </vehicle>
    <vehicle id="31" type="vTypeMotorcycle" depart="22.00">
        <route edges="S2TL TL2E"/>
    </vehicle>
    <vehicle id="33" type="vTypeCar" depart="24.00">
        <route edges="E2TL TL2S"/>
    </vehicle>
    <vehicle id="34" type="vTypeMotorcycle" depart="25.00">
        <route edges="S2TL TL2N"/>
    </vehicle>
    <vehicle id="35" type="vTypeCar" depart="26.00">
        <route edges="W2TL TL2N"/>
    </vehicle>
    <vehicle id="36" type="vTypeMotorcycle" depart="26.00">
        <route edges="S2TL TL2E"/>
    </vehicle>
    <vehicle id="38" type="vTypeCar" depart="27.00">
        <route edges="W2TL TL2E"/>
    </vehicle>
    <vehicle id="39" type="vTypeCar" depart="28.00">
        <route edges="N2TL TL2E"/>
    </vehicle>
    <vehicle id="41" type="vTypeMotorcycle" depart="31.00">
        <route edges="E2TL TL2W"/>
    </vehicle>
    <vehicle id="42" type="vTypeCar" depart="31.00">
        <route edges="N2TL TL2E"/>
    </vehicle>
    <vehicle id="43" type="vTypeCar" depart="33.00">
        <route edges="W2TL TL2N"/>
    </vehicle>
    <vehicle id="44" type="vTypeCar" depart="34.00">
        <route edges="N2TL TL2S"/>
    </vehicle>
    <vehicle id="45" type="vTypeMotorcycle" depart="34.00">
        <route edges="N2TL TL2E"/>
    </vehicle>
    <vehicle id="48" type="vTypeCar" depart="39.00">
        <route edges="N2TL TL2W"/>
    </vehicle>
    <vehicle id="49" type="vTypeMotorcycle" depart="40.00">
        <route edges="E2TL TL2W"/>
    </vehicle>
    <vehicle id="51" type="vTypeMotorcycle" depart="41.00">
        <route edges="S2TL TL2E"/>
    </vehicle>
    <vehicle id="54" type="vTypeMotorcycle" depart="45.00">
        <route edges="W2TL TL2S"/>
    </vehicle>
    <vehicle id="55" type="vTypeMotorcycle" depart="46.00">
        <route edges="W2TL TL2E"/>
    </vehicle>
    <vehicle id="56" type="vTypeMotorcycle" depart="47.00">
        <route edges="E2TL TL2W"/>
    </vehicle>
    <vehicle id="57" type="vTypeMotorcycle" depart="47.00">
        <route edges="E2TL TL2N"/>
    </vehicle>
    <vehicle id="59" type="vTypeMotorcycle" depart="49.00">
        <route edges="N2TL TL2S"/>
    </vehicle>
    <vehicle id="60" type="vTypeCar" depart="52.00">
        <route edges="E2TL TL2N"/>
    </vehicle>
    <vehicle id="61" type="vTypeMotorcycle" depart="52.00">
        <route edges="W2TL TL2E"/>
    </vehicle>
    <vehicle id="63" type="vTypeCar" depart="54.00">
        <route edges="W2TL TL2N"/>
    </vehicle>
    <vehicle id="64" type="vTypeMotorcycle" depart="55.00">
        <route edges="W2TL TL2E"/>
    </vehicle>
    <vehicle id="66" type="vTypeMotorcycle" depart="58.00">
        <route edges="W2TL TL2E"/>
    </vehicle>
    <vehicle id="67" type="vTypeCar" depart="58.00">
        <route edges="S2TL TL2N"/>
    </vehicle>
    <vehicle id="68" type="vTypeCar" depart="60.00">
        <route edges="N2TL TL2S"/>
    </vehicle>
    <vehicle id="69" type="vTypeMotorcycle" depart="62.00">
        <route edges="W2TL TL2E"/>
    </vehicle>
    <vehicle id="71" type="vTypeMotorcycle" depart="64.00">
        <route edges="N2TL TL2S"/>
    </vehicle>
    <vehicle id="73" type="vTypeMotorcycle" depart="65.00">
        <route edges="S2TL TL2W"/>
    </vehicle>
    <vehicle id="74" type="vTypeCar" depart="66.00">
        <route edges="E2TL TL2W"/>
    </vehicle>
    <vehicle id="75" type="vTypeCar" depart="69.00">
        <route edges="N2TL TL2W"/>
    </vehicle>
    <vehicle id="76" type="vTypeCar" depart="69.00">
        <route edges="N2TL TL2E"/>
    </vehicle>
    <vehicle id="77" type="vTypeCar" depart="70.00">
        <route edges="W2TL TL2N"/>
    </vehicle>
    <vehicle id="78" type="vTypeMotorcycle" depart="70.00">
        <route edges="S2TL TL2W"/>
    </vehicle>
    <vehicle id="79" type="vTypeMotorcycle" depart="71.00">
        <route edges="N2TL TL2W"/>
    </vehicle>
    <vehicle id="81" type="vTypeCar" depart="71.00">
        <route edges="N2TL TL2E"/>
    </vehicle>
    <vehicle id="82" type="vTypeMotorcycle" depart="71.00">
        <route edges="E2TL TL2N"/>
    </vehicle>
    <vehicle id="83" type="vTypeMotorcycle" depart="74.00">
        <route edges="W2TL TL2N"/>
    </vehicle>
    <vehicle id="84" type="vTypeMotorcycle" depart="74.00">
        <route edges="S2TL TL2N"/>
    </vehicle>
    <vehicle id="86" type="vTypeMotorcycle" depart="80.00">
        <route edges="N2TL TL2W"/>
    </vehicle>
    <vehicle id="87" type="vTypeMotorcycle" depart="80.00">
        <route edges="E2TL TL2W"/>
    </vehicle>
    <vehicle id="88" type="vTypeMotorcycle" depart="84.00">
        <route edges="E2TL TL2N"/>
    </vehicle>
    <vehicle id="90" type="vTypeMotorcycle" depart="85.00">
        <route edges="S2TL TL2N"/>
    </vehicle>
    <vehicle id="91" type="vTypeMotorcycle" depart="87.00">
        <route edges="W2TL TL2E"/>
    </vehicle>
    <vehicle id="92" type="vTypeCar" depart="92.00">
        <route edges="W2TL TL2E"/>
    </vehicle>
    <vehicle id="93" type="vTypeMotorcycle" depart="93.00">
        <route edges="E2TL TL2W"/>
    </vehicle>
    <vehicle id="94" type="vTypeCar" depart="93.00">
        <route edges="N2TL TL2S"/>
    </vehicle>
    <vehicle id="95" type="vTypeMotorcycle" depart="96.00">
        <route edges="W2TL TL2S"/>
    </vehicle>
    <vehicle id="96" type="vTypeMotorcycle" depart="98.00">
        <route edges="E2TL TL2W"/>
    </vehicle>
    <vehicle id="97" type="vTypeMotorcycle" depart="100.00">
        <route edges="E2TL TL2N"/>
    </vehicle>
    <vehicle id="98" type="vTypeMotorcycle" depart="100.00">
        <route edges="N2TL TL2E"/>
    </vehicle>
    <vehicle id="99" type="vTypeMotorcycle" depart="100.00">
        <route edges="E2TL TL2N"/>
    </vehicle>
    <vehicle id="100" type="vTypeMotorcycle" depart="100.00">
        <route edges="W2TL TL2N"/>
    </vehicle>
    <vehicle id="101" type="vTypeMotorcycle" depart="102.00">
        <route edges="N2TL TL2S"/>
    </vehicle>
    <vehicle id="102" type="vTypeMotorcycle" depart="103.00">
        <route edges="S2TL TL2N"/>
    </vehicle>
    <vehicle id="103" type="vTypeMotorcycle" depart="103.00">
        <route edges="W2TL TL2E"/>
    </vehicle>
    <vehicle id="104" type="vTypeMotorcycle" depart="103.00">
        <route edges="E2TL TL2N"/>
    </vehicle>
    <vehicle id="105" type="vTypeMotorcycle" depart="104.00">
        <route edges="N2TL TL2W"/>
    </vehicle>
    <vehicle id="107" type="vTypeMotorcycle" depart="105.00">
        <route edges="W2TL TL2E"/>
    </vehicle>
    <vehicle id="110" type="vTypeMotorcycle" depart="108.00">
        <route edges="S2TL TL2W"/>
    </vehicle>
    <vehicle id="111" type="vTypeMotorcycle" depart="109.00">
        <route edges="N2TL TL2S"/>
    </vehicle>
    <vehicle id="113" type="vTypeMotorcycle" depart="111.00">
        <route edges="E2TL TL2W"/>
    </vehicle>
    <vehicle id="114" type="vTypeMotorcycle" depart="111.00">
        <route edges="N2TL TL2S"/>
    </vehicle>
    <vehicle id="116" type="vTypeMotorcycle" depart="112.00">
        <route edges="W2TL TL2N"/>
    </vehicle>
    <vehicle id="117" type="vTypeCar" depart="113.00">
        <route edges="N2TL TL2E"/>
    </vehicle>
    <vehicle id="118" type="vTypeMotorcycle" depart="114.00">
        <route edges="E2TL TL2S"/>
    </vehicle>
    <vehicle id="119" type="vTypeMotorcycle" depart="116.00">
        <route edges="W2TL TL2S"/>
    </vehicle>
    <vehicle id="120" type="vTypeMotorcycle" depart="116.00">
        <route edges="E2TL TL2S"/>
    </vehicle>
    <vehicle id="121" type="vTypeCar" depart="117.00">
        <route edges="E2TL TL2N"/>
    </vehicle>
    <vehicle id="122" type="vTypeMotorcycle" depart="117.00">
        <route edges="W2TL TL2N"/>
    </vehicle>
    <vehicle id="124" type="vTypeMotorcycle" depart="119.00">
        <route edges="S2TL TL2W"/>
    </vehicle>
    <vehicle id="125" type="vTypeMotorcycle" depart="120.00">
        <route edges="W2TL TL2E"/>
    </vehicle>
    <vehicle id="127" type="vTypeMotorcycle" depart="122.00">
        <route edges="W2TL TL2S"/>
    </vehicle>
    <vehicle id="128" type="vTypeMotorcycle" depart="123.00">
        <route edges="W2TL TL2E"/>
    </vehicle>
    <vehicle id="129" type="vTypeMotorcycle" depart="124.00">
        <route edges="N2TL TL2W"/>
    </vehicle>
    <vehicle id="130" type="vTypeMotorcycle" depart="124.00">
        <route edges="N2TL TL2E"/>
    </vehicle>
    <vehicle id="131" type="vTypeMotorcycle" depart="125.00">
        <route edges="S2TL TL2W"/>
    </vehicle>
    <vehicle id="132" type="vTypeMotorcycle" depart="126.00">
        <route edges="N2TL TL2S"/>
    </vehicle>
    <vehicle id="133" type="vTypeMotorcycle" depart="126.00">
        <route edges="N2TL TL2E"/>
    </vehicle>
    <vehicle id="134" type="vTypeMotorcycle" depart="127.00">
        <route edges="E2TL TL2N"/>
    </vehicle>
    <vehicle id="135" type="vTypeMotorcycle" depart="129.00">
        <route edges="E2TL TL2W"/>
    </vehicle>
    <vehicle id="136" type="vTypeMotorcycle" depart="130.00">
        <route edges="N2TL TL2W"/>
    </vehicle>
    <vehicle id="138" type="vTypeMotorcycle" depart="132.00">
        <route edges="N2TL TL2W"/>
    </vehicle>
    <vehicle id="139" type="vTypeMotorcycle" depart="132.00">
        <route edges="E2TL TL2S"/>
    </vehicle>
    <vehicle id="140" type="vTypeMotorcycle" depart="132.00">
        <route edges="S2TL TL2E"/>
    </vehicle>
    <vehicle id="141" type="vTypeMotorcycle" depart="132.00">
        <route edges="N2TL TL2S"/>
    </vehicle>
    <vehicle id="142" type="vTypeMotorcycle" depart="135.00">
        <route edges="S2TL TL2N"/>
    </vehicle>
    <vehicle id="144" type="vTypeMotorcycle" depart="139.00">
        <route edges="E2TL TL2N"/>
    </vehicle>
    <vehicle id="145" type="vTypeMotorcycle" depart="139.00">
        <route edges="N2TL TL2S"/>
    </vehicle>
    <vehicle id="146" type="vTypeMotorcycle" depart="141.00">
        <route edges="S2TL TL2N"/>
    </vehicle>
    <vehicle id="147" type="vTypeMotorcycle" depart="142.00">
        <route edges="S2TL TL2W"/>
    </vehicle>
    <vehicle id="148" type="vTypeCar" depart="142.00">
        <route edges="N2TL TL2S"/>
    </vehicle>
    <vehicle id="149" type="vTypeMotorcycle" depart="144.00">
        <route edges="S2TL TL2W"/>
    </vehicle>
    <vehicle id="151" type="vTypeMotorcycle" depart="147.00">
        <route edges="S2TL TL2W"/>
    </vehicle>
    <vehicle id="152" type="vTypeMotorcycle" depart="149.00">
        <route edges="N2TL TL2S"/>
    </vehicle>
    <vehicle id="153" type="vTypeCar" depart="149.00">
        <route edges="E2TL TL2W"/>
    </vehicle>
    <vehicle id="154" type="vTypeMotorcycle" depart="150.00">
        <route edges="W2TL TL2N"/>
    </vehicle>
    <vehicle id="155" type="vTypeMotorcycle" depart="151.00">
        <route edges="S2TL TL2E"/>
    </vehicle>
    <vehicle id="156" type="vTypeCar" depart="152.00">
        <route edges="W2TL TL2N"/>
    </vehicle>
    <vehicle id="157" type="vTypeMotorcycle" depart="153.00">
        <route edges="S2TL TL2W"/>
    </vehicle>
    <vehicle id="158" type="vTypeMotorcycle" depart="156.00">
        <route edges="W2TL TL2E"/>
    </vehicle>
    <vehicle id="159" type="vTypeMotorcycle" depart="158.00">
        <route edges="W2TL TL2E"/>
    </vehicle>
    <vehicle id="162" type="vTypeMotorcycle" depart="159.00">
        <route edges="S2TL TL2W"/>
    </vehicle>
    <vehicle id="163" type="vTypeMotorcycle" depart="160.00">
        <route edges="S2TL TL2W"/>
    </vehicle>
    <vType id="vTypeBus" probability="0.01" vClass="bus" guiShape="bus"/>
    <vehicle id="164" type="vTypeBus" depart="160.00">
        <route edges="W2TL TL2S"/>
    </vehicle>
    <vehicle id="165" type="vTypeMotorcycle" depart="164.00">
        <route edges="W2TL TL2S"/>
    </vehicle>
    <vehicle id="167" type="vTypeMotorcycle" depart="167.00">
        <route edges="N2TL TL2S"/>
    </vehicle>
    <vehicle id="169" type="vTypeMotorcycle" depart="172.00">
        <route edges="W2TL TL2E"/>
    </vehicle>
    <vehicle id="170" type="vTypeMotorcycle" depart="173.00">
        <route edges="W2TL TL2E"/>
    </vehicle>
    <vehicle id="171" type="vTypeCar" depart="174.00">
        <route edges="E2TL TL2N"/>
    </vehicle>
    <vehicle id="172" type="vTypeCar" depart="175.00">
        <route edges="W2TL TL2S"/>
    </vehicle>
    <vehicle id="173" type="vTypeMotorcycle" depart="177.00">
        <route edges="W2TL TL2S"/>
    </vehicle>
    <vehicle id="174" type="vTypeMotorcycle" depart="180.00">
        <route edges="S2TL TL2E"/>
    </vehicle>
    <vehicle id="175" type="vTypeMotorcycle" depart="180.00">
        <route edges="N2TL TL2E"/>
    </vehicle>
    <vehicle id="176" type="vTypeMotorcycle" depart="180.00">
        <route edges="S2TL TL2E"/>
    </vehicle>
    <vehicle id="177" type="vTypeMotorcycle" depart="181.00">
        <route edges="S2TL TL2N"/>
    </vehicle>
    <vehicle id="179" type="vTypeCar" depart="183.00">
        <route edges="S2TL TL2W"/>
    </vehicle>
    <vehicle id="180" type="vTypeMotorcycle" depart="184.00">
        <route edges="N2TL TL2W"/>
    </vehicle>
    <vehicle id="181" type="vTypeCar" depart="184.00">
        <route edges="N2TL TL2S"/>
    </vehicle>
    <vehicle id="182" type="vTypeMotorcycle" depart="186.00">
        <route edges="E2TL TL2N"/>
    </vehicle>
    <vehicle id="183" type="vTypeCar" depart="188.00">
        <route edges="S2TL TL2E"/>
    </vehicle>
    <vehicle id="184" type="vTypeCar" depart="188.00">
        <route edges="W2TL TL2S"/>
    </vehicle>
    <vehicle id="187" type="vTypeCar" depart="194.00">
        <route edges="S2TL TL2W"/>
    </vehicle>
    <vehicle id="188" type="vTypeMotorcycle" depart="197.00">
        <route edges="N2TL TL2E"/>
    </vehicle>
    <vehicle id="189" type="vTypeMotorcycle" depart="197.00">
        <route edges="E2TL TL2S"/>
    </vehicle>
    <vehicle id="190" type="vTypeCar" depart="198.00">
        <route edges="W2TL TL2E"/>
    </vehicle>
    <vehicle id="191" type="vTypeMotorcycle" depart="198.00">
        <route edges="S2TL TL2W"/>
    </vehicle>
    <vehicle id="192" type="vTypeMotorcycle" depart="198.00">
        <route edges="W2TL TL2N"/>
    </vehicle>
    <vehicle id="193" type="vTypeCar" depart="199.00">
        <route edges="N2TL TL2W"/>
    </vehicle>
    <vehicle id="194" type="vTypeCar" depart="201.00">
        <route edges="W2TL TL2N"/>
    </vehicle>
    <vehicle id="196" type="vTypeCar" depart="203.00">
        <route edges="E2TL TL2W"/>
    </vehicle>
    <vehicle id="197" type="vTypeMotorcycle" depart="204.00">
        <route edges="E2TL TL2N"/>
    </vehicle>
    <vehicle id="198" type="vTypeMotorcycle" depart="206.00">
        <route edges="S2TL TL2E"/>
    </vehicle>
    <vehicle id="199" type="vTypeMotorcycle" depart="206.00">
        <route edges="W2TL TL2S"/>
    </vehicle>
    <vehicle id="201" type="vTypeCar" depart="208.00">
        <route edges="E2TL TL2S"/>
    </vehicle>
    <vehicle id="202" type="vTypeMotorcycle" depart="209.00">
        <route edges="W2TL TL2N"/>
    </vehicle>
    <vehicle id="203" type="vTypeCar" depart="209.00">
        <route edges="N2TL TL2W"/>
    </vehicle>
    <vehicle id="205" type="vTypeMotorcycle" depart="209.00">
        <route edges="E2TL TL2N"/>
    </vehicle>
    <vehicle id="206" type="vTypeMotorcycle" depart="211.00">
        <route edges="E2TL TL2W"/>
    </vehicle>
    <vehicle id="207" type="vTypeCar" depart="211.00">
        <route edges="S2TL TL2W"/>
    </vehicle>
    <vehicle id="208" type="vTypeMotorcycle" depart="212.00">
        <route edges="N2TL TL2S"/>
    </vehicle>
    <vehicle id="209" type="vTypeCar" depart="212.00">
        <route edges="N2TL TL2W"/>
    </vehicle>
    <vehicle id="211" type="vTypeCar" depart="215.00">
        <route edges="N2TL TL2E"/>
    </vehicle>
    <vehicle id="212" type="vTypeMotorcycle" depart="216.00">
        <route edges="S2TL TL2N"/>
    </vehicle>
    <vehicle id="213" type="vTypeMotorcycle" depart="217.00">
        <route edges="S2TL TL2W"/>
    </vehicle>
    <vehicle id="214" type="vTypeMotorcycle" depart="218.00">
        <route edges="E2TL TL2S"/>
    </vehicle>
    <vehicle id="216" type="vTypeCar" depart="219.00">
        <route edges="S2TL TL2W"/>
    </vehicle>
    <vehicle id="217" type="vTypeMotorcycle" depart="219.00">
        <route edges="W2TL TL2S"/>
    </vehicle>
    <vehicle id="218" type="vTypeMotorcycle" depart="224.00">
        <route edges="E2TL TL2S"/>
    </vehicle>
    <vehicle id="219" type="vTypeCar" depart="225.00">
        <route edges="E2TL TL2S"/>
    </vehicle>
    <vehicle id="221" type="vTypeCar" depart="229.00">
        <route edges="S2TL TL2W"/>
    </vehicle>
    <vehicle id="222" type="vTypeMotorcycle" depart="229.00">
        <route edges="W2TL TL2S"/>
    </vehicle>
    <vehicle id="223" type="vTypeCar" depart="230.00">
        <route edges="E2TL TL2N"/>
    </vehicle>
    <vehicle id="224" type="vTypeMotorcycle" depart="230.00">
        <route edges="W2TL TL2N"/>
    </vehicle>
    <vehicle id="225" type="vTypeMotorcycle" depart="233.00">
        <route edges="S2TL TL2N"/>
    </vehicle>
    <vehicle id="226" type="vTypeMotorcycle" depart="234.00">
        <route edges="N2TL TL2E"/>
    </vehicle>
    <vehicle id="227" type="vTypeCar" depart="237.00">
        <route edges="S2TL TL2W"/>
    </vehicle>
    <vehicle id="228" type="vTypeMotorcycle" depart="239.00">
        <route edges="N2TL TL2W"/>
    </vehicle>
    <vehicle id="229" type="vTypeCar" depart="239.00">
        <route edges="E2TL TL2W"/>
    </vehicle>
    <vehicle id="230" type="vTypeCar" depart="241.00">
        <route edges="N2TL TL2S"/>
    </vehicle>
    <vehicle id="231" type="vTypeMotorcycle" depart="243.00">
        <route edges="S2TL TL2N"/>
    </vehicle>
    <vehicle id="232" type="vTypeCar" depart="245.00">
        <route edges="N2TL TL2S"/>
    </vehicle>
    <vehicle id="233" type="vTypeMotorcycle" depart="246.00">
        <route edges="S2TL TL2N"/>
    </vehicle>
    <vehicle id="234" type="vTypeMotorcycle" depart="247.00">
        <route edges="W2TL TL2N"/>
    </vehicle>
    <vehicle id="235" type="vTypeMotorcycle" depart="247.00">
        <route edges="S2TL TL2W"/>
    </vehicle>
    <vehicle id="236" type="vTypeMotorcycle" depart="248.00">
        <route edges="W2TL TL2N"/>
    </vehicle>
    <vehicle id="237" type="vTypeMotorcycle" depart="249.00">
        <route edges="W2TL TL2E"/>
    </vehicle>
    <vehicle id="238" type="vTypeMotorcycle" depart="249.00">
        <route edges="W2TL TL2S"/>
    </vehicle>
    <vehicle id="239" type="vTypeMotorcycle" depart="250.00">
        <route edges="N2TL TL2S"/>
    </vehicle>
    <vehicle id="240" type="vTypeCar" depart="250.00">
        <route edges="E2TL TL2N"/>
    </vehicle>
    <vehicle id="241" type="vTypeCar" depart="250.00">
        <route edges="E2TL TL2W"/>
    </vehicle>
    <vehicle id="242" type="vTypeMotorcycle" depart="251.00">
        <route edges="E2TL TL2W"/>
    </vehicle>
    <vehicle id="243" type="vTypeCar" depart="251.00">
        <route edges="S2TL TL2N"/>
    </vehicle>
    <vehicle id="244" type="vTypeCar" depart="251.00">
        <route edges="N2TL TL2E"/>
    </vehicle>
    <vehicle id="245" type="vTypeCar" depart="251.00">
        <route edges="W2TL TL2N"/>
    </vehicle>
    <vehicle id="247" type="vTypeCar" depart="253.00">
        <route edges="S2TL TL2W"/>
    </vehicle>
    <vehicle id="250" type="vTypeCar" depart="254.00">
        <route edges="N2TL TL2E"/>
    </vehicle>
    <vehicle id="251" type="vTypeMotorcycle" depart="255.00">
        <route edges="N2TL TL2S"/>
    </vehicle>
    <vehicle id="252" type="vTypeMotorcycle" depart="256.00">
        <route edges="W2TL TL2E"/>
    </vehicle>
    <vehicle id="253" type="vTypeMotorcycle" depart="256.00">
        <route edges="W2TL TL2N"/>
    </vehicle>
    <vehicle id="255" type="vTypeMotorcycle" depart="259.00">
        <route edges="N2TL TL2E"/>
    </vehicle>
    <vehicle id="256" type="vTypeMotorcycle" depart="260.00">
        <route edges="E2TL TL2W"/>
    </vehicle>
    <vehicle id="257" type="vTypeMotorcycle" depart="261.00">
        <route edges="S2TL TL2N"/>
    </vehicle>
    <vehicle id="261" type="vTypeMotorcycle" depart="267.00">
        <route edges="N2TL TL2S"/>
    </vehicle>
    <vehicle id="265" type="vTypeMotorcycle" depart="270.00">
        <route edges="S2TL TL2W"/>
    </vehicle>
    <vehicle id="266" type="vTypeMotorcycle" depart="272.00">
        <route edges="N2TL TL2E"/>
    </vehicle>
    <vehicle id="267" type="vTypeCar" depart="272.00">
        <route edges="N2TL TL2S"/>
    </vehicle>
    <vehicle id="269" type="vTypeMotorcycle" depart="273.00">
        <route edges="S2TL TL2E"/>
    </vehicle>
    <vehicle id="271" type="vTypeCar" depart="273.00">
        <route edges="W2TL TL2E"/>
    </vehicle>
    <vehicle id="272" type="vTypeMotorcycle" depart="274.00">
        <route edges="N2TL TL2E"/>
    </vehicle>
    <vehicle id="273" type="vTypeMotorcycle" depart="275.00">
        <route edges="E2TL TL2N"/>
    </vehicle>
    <vehicle id="274" type="vTypeCar" depart="275.00">
        <route edges="N2TL TL2S"/>
    </vehicle>
    <vehicle id="276" type="vTypeMotorcycle" depart="277.00">
        <route edges="S2TL TL2E"/>
    </vehicle>
    <vehicle id="278" type="vTypeMotorcycle" depart="278.00">
        <route edges="E2TL TL2W"/>
    </vehicle>
    <vehicle id="279" type="vTypeMotorcycle" depart="278.00">
        <route edges="N2TL TL2S"/>
    </vehicle>
    <vehicle id="280" type="vTypeCar" depart="279.00">
        <route edges="E2TL TL2S"/>
    </vehicle>
    <vehicle id="282" type="vTypeMotorcycle" depart="281.00">
        <route edges="N2TL TL2W"/>
    </vehicle>
    <vehicle id="283" type="vTypeMotorcycle" depart="281.00">
        <route edges="E2TL TL2N"/>
    </vehicle>
    <vehicle id="284" type="vTypeCar" depart="281.00">
        <route edges="N2TL TL2E"/>
    </vehicle>
    <vehicle id="285" type="vTypeMotorcycle" depart="282.00">
        <route edges="E2TL TL2N"/>
    </vehicle>
    <vehicle id="287" type="vTypeMotorcycle" depart="284.00">
        <route edges="E2TL TL2S"/>
    </vehicle>
    <vehicle id="288" type="vTypeMotorcycle" depart="286.00">
        <route edges="E2TL TL2W"/>
    </vehicle>
    <vehicle id="289" type="vTypeCar" depart="288.00">
        <route edges="W2TL TL2E"/>
    </vehicle>
    <vehicle id="291" type="vTypeMotorcycle" depart="289.00">
        <route edges="S2TL TL2W"/>
    </vehicle>
    <vehicle id="293" type="vTypeMotorcycle" depart="290.00">
        <route edges="S2TL TL2E"/>
    </vehicle>
    <vehicle id="295" type="vTypeMotorcycle" depart="295.00">
        <route edges="E2TL TL2N"/>
    </vehicle>
    <vehicle id="296" type="vTypeMotorcycle" depart="296.00">
        <route edges="S2TL TL2W"/>
    </vehicle>
    <vehicle id="300" type="vTypeMotorcycle" depart="300.00">
        <route edges="W2TL TL2S"/>
    </vehicle>
    <vehicle id="301" type="vTypeMotorcycle" depart="301.00">
        <route edges="S2TL TL2E"/>
    </vehicle>
    <vehicle id="302" type="vTypeMotorcycle" depart="305.00">
        <route edges="S2TL TL2N"/>
    </vehicle>
    <vehicle id="303" type="vTypeCar" depart="305.00">
        <route edges="W2TL TL2S"/>
    </vehicle>
    <vehicle id="304" type="vTypeMotorcycle" depart="306.00">
        <route edges="E2TL TL2S"/>
    </vehicle>
    <vehicle id="305" type="vTypeMotorcycle" depart="306.00">
        <route edges="N2TL TL2S"/>
    </vehicle>
    <vehicle id="306" type="vTypeMotorcycle" depart="306.00">
        <route edges="W2TL TL2N"/>
    </vehicle>
    <vehicle id="307" type="vTypeMotorcycle" depart="307.00">
        <route edges="N2TL TL2E"/>
    </vehicle>
    <vehicle id="308" type="vTypeCar" depart="307.00">
        <route edges="E2TL TL2W"/>
    </vehicle>
    <vehicle id="309" type="vTypeMotorcycle" depart="307.00">
        <route edges="N2TL TL2W"/>
    </vehicle>
    <vehicle id="310" type="vTypeMotorcycle" depart="307.00">
        <route edges="N2TL TL2E"/>
    </vehicle>
    <vehicle id="312" type="vTypeMotorcycle" depart="309.00">
        <route edges="E2TL TL2S"/>
    </vehicle>
    <vehicle id="313" type="vTypeMotorcycle" depart="311.00">
        <route edges="S2TL TL2E"/>
    </vehicle>
    <vehicle id="314" type="vTypeCar" depart="311.00">
        <route edges="S2TL TL2E"/>
    </vehicle>
    <vehicle id="315" type="vTypeCar" depart="311.00">
        <route edges="S2TL TL2N"/>
    </vehicle>
    <vehicle id="317" type="vTypeCar" depart="312.00">
        <route edges="S2TL TL2E"/>
    </vehicle>
    <vehicle id="318" type="vTypeCar" depart="312.00">
        <route edges="W2TL TL2S"/>
    </vehicle>
    <vehicle id="320" type="vTypeMotorcycle" depart="315.00">
        <route edges="N2TL TL2E"/>
    </vehicle>
    <vehicle id="321" type="vTypeMotorcycle" depart="318.00">
        <route edges="N2TL TL2S"/>
    </vehicle>
    <vehicle id="322" type="vTypeMotorcycle" depart="319.00">
        <route edges="S2TL TL2W"/>
    </vehicle>
    <vehicle id="323" type="vTypeCar" depart="319.00">
        <route edges="N2TL TL2S"/>
    </vehicle>
    <vehicle id="324" type="vTypeMotorcycle" depart="321.00">
        <route edges="N2TL TL2E"/>
    </vehicle>
    <vehicle id="328" type="vTypeMotorcycle" depart="322.00">
        <route edges="E2TL TL2W"/>
    </vehicle>
    <vehicle id="329" type="vTypeMotorcycle" depart="323.00">
        <route edges="E2TL TL2N"/>
    </vehicle>
    <vehicle id="330" type="vTypeMotorcycle" depart="323.00">
        <route edges="W2TL TL2E"/>
    </vehicle>
    <vehicle id="331" type="vTypeCar" depart="323.00">
        <route edges="N2TL TL2W"/>
    </vehicle>
    <vehicle id="334" type="vTypeCar" depart="327.00">
        <route edges="E2TL TL2S"/>
    </vehicle>
    <vehicle id="335" type="vTypeCar" depart="327.00">