<?xml version="1.0" encoding="UTF-8"?>

<!-- generated on 2023-03-15 23:29:42.828885 by randomTrips.py v1_14_1+0000-f654d7b963e
<configuration>
    <additional-files value="./intersection/indian\vehicles.add.vtype.xml"/>
    <end value="4000"/>
    <net-file value="./intersection/indian\environment.net.xml"/>
    <random-depart value="True"/>
    <route-file value="./intersection/indian\episode_routes.rou.xml"/>
    <seed value="193"/>
    <trip-attributes value="type=&quot;typedist1&quot;"/>
    <output-trip-file value="./intersection/indian\trips.trips.xml"/>
    <validate value="True"/>
</configuration>
-->

<!-- generated on 2023-03-15 23:29:42 by Eclipse SUMO duarouter Version 1.14.1
<configuration xmlns:xsi="http://www.w3.org/2001/XMLSchema-instance" xsi:noNamespaceSchemaLocation="http://sumo.dlr.de/xsd/duarouterConfiguration.xsd">

    <input>
        <net-file value="./intersection/indian\environment.net.xml"/>
        <additional-files value="./intersection/indian\vehicles.add.vtype.xml"/>
        <route-files value="./intersection/indian\trips.trips.xml"/>
    </input>

    <output>
        <output-file value="./intersection/indian\trips.trips.xml.tmp"/>
        <alternatives-output value="NUL"/>
        <write-trips value="true"/>
    </output>

    <time>
        <begin value="0"/>
        <end value="4000"/>
    </time>

    <report>
        <no-warnings value="true"/>
        <ignore-errors value="true"/>
        <no-step-log value="true"/>
    </report>

</configuration>
-->

<routes xmlns:xsi="http://www.w3.org/2001/XMLSchema-instance" xsi:noNamespaceSchemaLocation="http://sumo.dlr.de/xsd/routes_file.xsd">
    <vType id="vTypeCar" probability="0.27" vClass="passenger" guiShape="passenger"/>
    <trip id="2" type="vTypeCar" depart="2.00" from="S2TL" to="TL2W"/>
    <vType id="vTypeMotorcycle" probability="0.71" vClass="motorcycle" guiShape="motorcycle"/>
    <trip id="3" type="vTypeMotorcycle" depart="3.00" from="N2TL" to="TL2S"/>
    <trip id="5" type="vTypeCar" depart="5.00" from="W2TL" to="TL2N"/>
    <trip id="6" type="vTypeMotorcycle" depart="6.00" from="S2TL" to="TL2N"/>
    <trip id="8" type="vTypeMotorcycle" depart="8.00" from="W2TL" to="TL2N"/>
    <trip id="9" type="vTypeMotorcycle" depart="8.00" from="W2TL" to="TL2E"/>
    <trip id="10" type="vTypeCar" depart="9.00" from="S2TL" to="TL2W"/>
    <trip id="11" type="vTypeMotorcycle" depart="10.00" from="N2TL" to="TL2W"/>
    <trip id="12" type="vTypeMotorcycle" depart="10.00" from="S2TL" to="TL2W"/>
    <trip id="14" type="vTypeMotorcycle" depart="11.00" from="S2TL" to="TL2N"/>
    <trip id="15" type="vTypeCar" depart="11.00" from="W2TL" to="TL2N"/>
    <trip id="16" type="vTypeCar" depart="13.00" from="N2TL" to="TL2E"/>
    <trip id="17" type="vTypeMotorcycle" depart="14.00" from="E2TL" to="TL2W"/>
    <trip id="18" type="vTypeMotorcycle" depart="14.00" from="N2TL" to="TL2W"/>
    <trip id="19" type="vTypeMotorcycle" depart="15.00" from="N2TL" to="TL2W"/>
    <trip id="20" type="vTypeCar" depart="16.00" from="S2TL" to="TL2N"/>
    <trip id="24" type="vTypeMotorcycle" depart="25.00" from="W2TL" to="TL2E"/>
    <trip id="25" type="vTypeMotorcycle" depart="25.00" from="W2TL" to="TL2S"/>
    <trip id="26" type="vTypeMotorcycle" depart="27.00" from="W2TL" to="TL2E"/>
    <trip id="27" type="vTypeMotorcycle" depart="29.00" from="W2TL" to="TL2N"/>
    <trip id="28" type="vTypeMotorcycle" depart="31.00" from="N2TL" to="TL2W"/>
    <trip id="29" type="vTypeCar" depart="34.00" from="W2TL" to="TL2S"/>
    <trip id="30" type="vTypeCar" depart="35.00" from="S2TL" to="TL2E"/>
    <trip id="31" type="vTypeMotorcycle" depart="35.00" from="S2TL" to="TL2E"/>
    <trip id="35" type="vTypeCar" depart="44.00" from="S2TL" to="TL2E"/>
    <trip id="36" type="vTypeMotorcycle" depart="45.00" from="E2TL" to="TL2N"/>
    <trip id="38" type="vTypeCar" depart="45.00" from="N2TL" to="TL2E"/>
    <trip id="39" type="vTypeCar" depart="46.00" from="S2TL" to="TL2N"/>
    <trip id="40" type="vTypeMotorcycle" depart="46.00" from="S2TL" to="TL2N"/>
    <trip id="41" type="vTypeMotorcycle" depart="46.00" from="S2TL" to="TL2W"/>
    <trip id="43" type="vTypeCar" depart="49.00" from="N2TL" to="TL2S"/>
    <trip id="44" type="vTypeCar" depart="50.00" from="S2TL" to="TL2E"/>
    <trip id="47" type="vTypeMotorcycle" depart="50.00" from="W2TL" to="TL2E"/>
    <trip id="48" type="vTypeCar" depart="51.00" from="S2TL" to="TL2W"/>
    <trip id="49" type="vTypeMotorcycle" depart="51.00" from="S2TL" to="TL2N"/>
    <trip id="50" type="vTypeMotorcycle" depart="52.00" from="S2TL" to="TL2N"/>
    <trip id="51" type="vTypeMotorcycle" depart="54.00" from="S2TL" to="TL2N"/>
    <trip id="53" type="vTypeMotorcycle" depart="58.00" from="S2TL" to="TL2E"/>
    <trip id="54" type="vTypeMotorcycle" depart="58.00" from="W2TL" to="TL2E"/>
    <trip id="55" type="vTypeMotorcycle" depart="59.00" from="S2TL" to="TL2N"/>
    <trip id="58" type="vTypeCar" depart="62.00" from="E2TL" to="TL2N"/>
    <trip id="59" type="vTypeMotorcycle" depart="66.00" from="E2TL" to="TL2S"/>
    <trip id="60" type="vTypeCar" depart="66.00" from="W2TL" to="TL2N"/>
    <trip id="61" type="vTypeMotorcycle" depart="66.00" from="S2TL" to="TL2W"/>
    <trip id="62" type="vTypeCar" depart="66.00" from="E2TL" to="TL2S"/>
    <trip id="63" type="vTypeCar" depart="66.00" from="N2TL" to="TL2E"/>
    <trip id="66" type="vTypeMotorcycle" depart="70.00" from="S2TL" to="TL2E"/>
    <trip id="67" type="vTypeCar" depart="71.00" from="E2TL" to="TL2N"/>
    <trip id="68" type="vTypeCar" depart="72.00" from="S2TL" to="TL2N"/>
    <trip id="70" type="vTypeMotorcycle" depart="74.00" from="W2TL" to="TL2N"/>
    <trip id="71" type="vTypeMotorcycle" depart="76.00" from="S2TL" to="TL2E"/>
    <trip id="73" type="vTypeMotorcycle" depart="79.00" from="S2TL" to="TL2N"/>
    <trip id="74" type="vTypeCar" depart="80.00" from="N2TL" to="TL2W"/>
    <trip id="75" type="vTypeCar" depart="80.00" from="E2TL" to="TL2S"/>
    <trip id="77" type="vTypeCar" depart="82.00" from="E2TL" to="TL2S"/>
    <trip id="78" type="vTypeMotorcycle" depart="84.00" from="W2TL" to="TL2S"/>
    <trip id="79" type="vTypeMotorcycle" depart="84.00" from="W2TL" to="TL2E"/>
    <trip id="80" type="vTypeMotorcycle" depart="85.00" from="S2TL" to="TL2N"/>
    <trip id="81" type="vTypeCar" depart="86.00" from="N2TL" to="TL2S"/>
    <trip id="82" type="vTypeMotorcycle" depart="87.00" from="N2TL" to="TL2S"/>
    <trip id="83" type="vTypeMotorcycle" depart="90.00" from="N2TL" to="TL2W"/>
    <trip id="84" type="vTypeMotorcycle" depart="90.00" from="S2TL" to="TL2W"/>
    <trip id="86" type="vTypeMotorcycle" depart="91.00" from="E2TL" to="TL2W"/>
    <trip id="88" type="vTypeMotorcycle" depart="92.00" from="S2TL" to="TL2N"/>
    <trip id="89" type="vTypeMotorcycle" depart="97.00" from="E2TL" to="TL2S"/>
    <trip id="90" type="vTypeMotorcycle" depart="98.00" from="W2TL" to="TL2N"/>
    <trip id="93" type="vTypeMotorcycle" depart="103.00" from="E2TL" to="TL2W"/>
    <trip id="94" type="vTypeCar" depart="104.00" from="E2TL" to="TL2N"/>
    <trip id="95" type="vTypeMotorcycle" depart="104.00" from="W2TL" to="TL2E"/>
    <trip id="96" type="vTypeMotorcycle" depart="104.00" from="E2TL" to="TL2S"/>
    <trip id="97" type="vTypeMotorcycle" depart="105.00" from="W2TL" to="TL2E"/>
    <trip id="98" type="vTypeMotorcycle" depart="106.00" from="N2TL" to="TL2S"/>
    <trip id="99" type="vTypeMotorcycle" depart="106.00" from="W2TL" to="TL2S"/>
    <trip id="100" type="vTypeMotorcycle" depart="114.00" from="W2TL" to="TL2E"/>
    <trip id="101" type="vTypeMotorcycle" depart="114.00" from="N2TL" to="TL2W"/>
    <trip id="102" type="vTypeMotorcycle" depart="116.00" from="E2TL" to="TL2N"/>
    <trip id="103" type="vTypeMotorcycle" depart="117.00" from="N2TL" to="TL2W"/>
    <trip id="104" type="vTypeMotorcycle" depart="118.00" from="N2TL" to="TL2S"/>
    <trip id="105" type="vTypeMotorcycle" depart="120.00" from="N2TL" to="TL2W"/>
    <trip id="106" type="vTypeMotorcycle" depart="120.00" from="S2TL" to="TL2E"/>
    <trip id="107" type="vTypeMotorcycle" depart="120.00" from="N2TL" to="TL2W"/>
    <trip id="108" type="vTypeMotorcycle" depart="121.00" from="S2TL" to="TL2E"/>
    <trip id="109" type="vTypeCar" depart="122.00" from="S2TL" to="TL2W"/>
    <trip id="110" type="vTypeMotorcycle" depart="123.00" from="S2TL" to="TL2N"/>
    <trip id="113" type="vTypeMotorcycle" depart="129.00" from="E2TL" to="TL2W"/>
    <trip id="114" type="vTypeMotorcycle" depart="131.00" from="W2TL" to="TL2E"/>
    <trip id="115" type="vTypeCar" depart="134.00" from="W2TL" to="TL2E"/>
    <trip id="116" type="vTypeMotorcycle" depart="134.00" from="N2TL" to="TL2S"/>
    <trip id="117" type="vTypeCar" depart="135.00" from="W2TL" to="TL2N"/>
    <trip id="120" type="vTypeMotorcycle" depart="139.00" from="S2TL" to="TL2E"/>
    <trip id="122" type="vTypeMotorcycle" depart="139.00" from="S2TL" to="TL2N"/>
    <trip id="124" type="vTypeMotorcycle" depart="140.00" from="E2TL" to="TL2W"/>
    <trip id="125" type="vTypeMotorcycle" depart="141.00" from="E2TL" to="TL2S"/>
    <trip id="127" type="vTypeMotorcycle" depart="145.00" from="E2TL" to="TL2N"/>
    <trip id="129" type="vTypeMotorcycle" depart="148.00" from="E2TL" to="TL2W"/>
    <trip id="130" type="vTypeMotorcycle" depart="148.00" from="W2TL" to="TL2E"/>
    <trip id="131" type="vTypeMotorcycle" depart="148.00" from="N2TL" to="TL2W"/>
    <trip id="132" type="vTypeMotorcycle" depart="149.00" from="E2TL" to="TL2N"/>
    <trip id="133" type="vTypeMotorcycle" depart="151.00" from="N2TL" to="TL2W"/>
    <trip id="136" type="vTypeMotorcycle" depart="154.00" from="S2TL" to="TL2W"/>
    <trip id="137" type="vTypeCar" depart="154.00" from="E2TL" to="TL2W"/>
    <trip id="139" type="vTypeMotorcycle" depart="156.00" from="S2TL" to="TL2W"/>
    <trip id="140" type="vTypeMotorcycle" depart="157.00" from="N2TL" to="TL2E"/>
    <trip id="141" type="vTypeMotorcycle" depart="157.00" from="W2TL" to="TL2N"/>
    <trip id="142" type="vTypeMotorcycle" depart="159.00" from="N2TL" to="TL2S"/>
    <trip id="143" type="vTypeCar" depart="159.00" from="N2TL" to="TL2W"/>
    <trip id="145" type="vTypeMotorcycle" depart="166.00" from="S2TL" to="TL2E"/>
    <trip id="146" type="vTypeMotorcycle" depart="170.00" from="W2TL" to="TL2S"/>
    <trip id="148" type="vTypeCar" depart="173.00" from="S2TL" to="TL2E"/>
    <trip id="150" type="vTypeMotorcycle" depart="178.00" from="E2TL" to="TL2N"/>
    <trip id="151" type="vTypeMotorcycle" depart="178.00" from="S2TL" to="TL2N"/>
    <trip id="153" type="vTypeCar" depart="179.00" from="W2TL" to="TL2N"/>
    <trip id="154" type="vTypeMotorcycle" depart="180.00" from="N2TL" to="TL2W"/>
    <trip id="155" type="vTypeMotorcycle" depart="180.00" from="W2TL" to="TL2E"/>
    <trip id="156" type="vTypeCar" depart="181.00" from="S2TL" to="TL2E"/>
    <trip id="158" type="vTypeMotorcycle" depart="183.00" from="E2TL" to="TL2W"/>
    <trip id="159" type="vTypeMotorcycle" depart="183.00" from="N2TL" to="TL2W"/>
    <trip id="160" type="vTypeCar" depart="183.00" from="S2TL" to="TL2E"/>
    <trip id="161" type="vTypeMotorcycle" depart="184.00" from="W2TL" to="TL2N"/>
    <trip id="163" type="vTypeMotorcycle" depart="185.00" from="N2TL" to="TL2E"/>
    <vType id="vTypeBus" probability="0.01" vClass="bus" guiShape="bus"/>
    <trip id="164" type="vTypeBus" depart="185.00" from="S2TL" to="TL2E"/>
    <trip id="165" type="vTypeMotorcycle" depart="188.00" from="N2TL" to="TL2E"/>
    <trip id="166" type="vTypeMotorcycle" depart="191.00" from="W2TL" to="TL2E"/>
    <trip id="167" type="vTypeMotorcycle" depart="191.00" from="W2TL" to="TL2N"/>
    <trip id="170" type="vTypeMotorcycle" depart="199.00" from="S2TL" to="TL2N"/>
    <trip id="171" type="vTypeCar" depart="200.00" from="S2TL" to="TL2E"/>
    <trip id="176" type="vTypeMotorcycle" depart="204.00" from="E2TL" to="TL2N"/>
    <trip id="178" type="vTypeMotorcycle" depart="204.00" from="E2TL" to="TL2N"/>
    <trip id="179" type="vTypeCar" depart="209.00" from="N2TL" to="TL2S"/>
    <trip id="181" type="vTypeCar" depart="211.00" from="W2TL" to="TL2S"/>
    <trip id="182" type="vTypeMotorcycle" depart="212.00" from="W2TL" to="TL2S"/>
    <trip id="183" type="vTypeCar" depart="215.00" from="E2TL" to="TL2W"/>
    <trip id="185" type="vTypeCar" depart="215.00" from="S2TL" to="TL2N"/>
    <trip id="186" type="vTypeCar" depart="216.00" from="N2TL" to="TL2E"/>
    <trip id="188" type="vTypeMotorcycle" depart="219.00" from="W2TL" to="TL2N"/>
    <trip id="190" type="vTypeCar" depart="220.00" from="W2TL" to="TL2S"/>
    <trip id="191" type="vTypeMotorcycle" depart="221.00" from="E2TL" to="TL2S"/>
    <trip id="192" type="vTypeMotorcycle" depart="221.00" from="S2TL" to="TL2N"/>
    <trip id="193" type="vTypeCar" depart="222.00" from="W2TL" to="TL2S"/>
    <trip id="195" type="vTypeMotorcycle" depart="222.00" from="W2TL" to="TL2E"/>
    <trip id="196" type="vTypeCar" depart="223.00" from="W2TL" to="TL2E"/>
    <trip id="197" type="vTypeMotorcycle" depart="224.00" from="W2TL" to="TL2S"/>
    <trip id="198" type="vTypeMotorcycle" depart="225.00" from="S2TL" to="TL2N"/>
    <trip id="199" type="vTypeMotorcycle" depart="228.00" from="N2TL" to="TL2S"/>
    <trip id="200" type="vTypeMotorcycle" depart="229.00" from="W2TL" to="TL2S"/>
    <trip id="201" type="vTypeCar" depart="230.00" from="W2TL" to="TL2N"/>
    <trip id="202" type="vTypeMotorcycle" depart="232.00" from="W2TL" to="TL2N"/>
    <trip id="203" type="vTypeCar" depart="233.00" from="W2TL" to="TL2N"/>
    <trip id="204" type="vTypeMotorcycle" depart="234.00" from="W2TL" to="TL2S"/>
    <trip id="205" type="vTypeMotorcycle" depart="234.00" from="W2TL" to="TL2S"/>
    <trip id="206" type="vTypeMotorcycle" depart="235.00" from="N2TL" to="TL2S"/>
    <trip id="207" type="vTypeCar" depart="236.00" from="W2TL" to="TL2E"/>
    <trip id="208" type="vTypeMotorcycle" depart="239.00" from="S2TL" to="TL2W"/>
    <trip id="209" type="vTypeCar" depart="240.00" from="E2TL" to="TL2N"/>
    <trip id="210" type="vTypeMotorcycle" depart="241.00" from="W2TL" to="TL2S"/>
    <trip id="211" type="vTypeCar" depart="242.00" from="N2TL" to="TL2E"/>
    <trip id="212" type="vTypeMotorcycle" depart="244.00" from="S2TL" to="TL2N"/>
    <trip id="213" type="vTypeMotorcycle" depart="245.00" from="W2TL" to="TL2S"/>
    <trip id="214" type="vTypeMotorcycle" depart="248.00" from="W2TL" to="TL2N"/>
    <trip id="215" type="vTypeMotorcycle" depart="248.00" from="W2TL" to="TL2E"/>
    <trip id="216" type="vTypeCar" depart="250.00" from="N2TL" to="TL2E"/>
    <trip id="217" type="vTypeMotorcycle" depart="252.00" from="N2TL" to="TL2W"/>
    <trip id="218" type="vTypeMotorcycle" depart="254.00" from="N2TL" to="TL2E"/>
    <trip id="219" type="vTypeCar" depart="254.00" from="E2TL" to="TL2N"/>
    <trip id="223" type="vTypeCar" depart="256.00" from="S2TL" to="TL2N"/>
    <trip id="225" type="vTypeMotorcycle" depart="258.00" from="E2TL" to="TL2N"/>
    <trip id="226" type="vTypeMotorcycle" depart="258.00" from="S2TL" to="TL2N"/>
    <trip id="228" type="vTypeMotorcycle" depart="259.00" from="S2TL" to="TL2N"/>
    <trip id="229" type="vTypeCar" depart="261.00" from="E2TL" to="TL2W"/>
    <trip id="230" type="vTypeCar" depart="262.00" from="E2TL" to="TL2N"/>
    <trip id="231" type="vTypeMotorcycle" depart="267.00" from="W2TL" to="TL2S"/>
    <trip id="234" type="vTypeMotorcycle" depart="270.00" from="E2TL" to="TL2W"/>
    <trip id="236" type="vTypeMotorcycle" depart="270.00" from="W2TL" to="TL2E"/>
    <trip id="237" type="vTypeMotorcycle" depart="271.00" from="W2TL" to="TL2N"/>
    <trip id="238" type="vTypeMotorcycle" depart="272.00" from="S2TL" to="TL2E"/>
    <trip id="239" type="vTypeMotorcycle" depart="272.00" from="N2TL" to="TL2W"/>
    <trip id="240" type="vTypeCar" depart="272.00" from="S2TL" to="TL2E"/>
    <trip id="241" type="vTypeCar" depart="274.00" from="E2TL" to="TL2N"/>
    <trip id="242" type="vTypeMotorcycle" depart="278.00" from="W2TL" to="TL2N"/>
    <trip id="245" type="vTypeCar" depart="280.00" from="S2TL" to="TL2N"/>
    <trip id="246" type="vTypeMotorcycle" depart="280.00" from="N2TL" to="TL2W"/>
    <trip id="247" type="vTypeCar" depart="281.00" from="S2TL" to="TL2N"/>
    <trip id="248" type="vTypeMotorcycle" depart="282.00" from="E2TL" to="TL2N"/>
    <trip id="249" type="vTypeMotorcycle" depart="283.00" from="S2TL" to="TL2W"/>
    <trip id="250" type="vTypeCar" depart="283.00" from="S2TL" to="TL2E"/>
    <trip id="251" type="vTypeMotorcycle" depart="283.00" from="N2TL" to="TL2E"/>
    <trip id="252" type="vTypeMotorcycle" depart="284.00" from="S2TL" to="TL2E"/>
    <trip id="253" type="vTypeMotorcycle" depart="285.00" from="N2TL" to="TL2E"/>
    <trip id="255" type="vTypeMotorcycle" depart="288.00" from="N2TL" to="TL2E"/>
    <trip id="256" type="vTypeMotorcycle" depart="288.00" from="N2TL" to="TL2W"/>
    <trip id="257" type="vTypeMotorcycle" depart="288.00" from="E2TL" to="TL2W"/>
    <trip id="258" type="vTypeMotorcycle" depart="288.00" from="S2TL" to="TL2E"/>
    <trip id="259" type="vTypeMotorcycle" depart="289.00" from="W2TL" to="TL2S"/>
    <trip id="261" type="vTypeMotorcycle" depart="290.00" from="S2TL" to="TL2W"/>
    <trip id="262" type="vTypeMotorcycle" depart="290.00" from="N2TL" to="TL2S"/>
    <trip id="263" type="vTypeCar" depart="294.00" from="W2TL" to="TL2S"/>
    <trip id="264" type="vTypeCar" depart="294.00" from="N2TL" to="TL2E"/>
    <trip id="265" type="vTypeMotorcycle" depart="296.00" from="W2TL" to="TL2N"/>
    <trip id="267" type="vTypeCar" depart="299.00" from="W2TL" to="TL2E"/>
    <trip id="268" type="vTypeBus" depart="299.00" from="N2TL" to="TL2S"/>
    <trip id="269" type="vTypeMotorcycle" depart="300.00" from="W2TL" to="TL2E"/>
    <trip id="270" type="vTypeMotorcycle" depart="301.00" from="N2TL" to="TL2W"/>
    <trip id="271" type="vTypeCar" depart="301.00" from="E2TL" to="TL2W"/>
    <trip id="272" type="vTypeMotorcycle" depart="301.00" from="E2TL" to="TL2S"/>
    <trip id="273" type="vTypeMotorcycle" depart="303.00" from="N2TL" to="TL2W"/>
    <trip id="275" type="vTypeMotorcycle" depart="306.00" from="E2TL" to="TL2W"/>
    <trip id="277" type="vTypeMotorcycle" depart="308.00" from="W2TL" to="TL2E"/>
    <trip id="279" type="vTypeMotorcycle" depart="310.00" from="N2TL" to="TL2W"/>
    <trip id="281" type="vTypeMotorcycle" depart="312.00" from="S2TL" to="TL2W"/>
    <trip id="282" type="vTypeMotorcycle" depart="312.00" from="W2TL" to="TL2E"/>
    <trip id="283" type="vTypeMotorcycle" depart="314.00" from="W2TL" to="TL2S"/>
    <trip id="285" type="vTypeMotorcycle" depart="316.00" from="N2TL" to="TL2W"/>
    <trip id="286" type="vTypeMotorcycle" depart="317.00" from="N2TL" to="TL2S"/>
    <trip id="289" type="vTypeCar" depart="318.00" from="N2TL" to="TL2W"/>
    <trip id="290" type="vTypeMotorcycle" depart="319.00" from="N2TL" to="TL2E"/>
    <trip id="291" type="vTypeMotorcycle" depart="319.00" from="W2TL" to="TL2S"/>
    <trip id="292" type="vTypeMotorcycle" depart="320.00" from="N2TL" to="TL2S"/>
    <trip id="293" type="vTypeMotorcycle" depart="322.00" from="N2TL" to="TL2W"/>
    <trip id="294" type="vTypeMotorcycle" depart="324.00" from="E2TL" to="TL2S"/>
    <trip id="295" type="vTypeMotorcycle" depart="325.00" from="E2TL" to="TL2S"/>
    <trip id="296" type="vTypeMotorcycle" depart="325.00" from="W2TL" to="TL2N"/>
    <trip id="297" type="vTypeMotorcycle" depart="325.00" from="W2TL" to="TL2E"/>
    <trip id="298" type="vTypeMotorcycle" depart="329.00" from="N2TL" to="TL2S"/>
    <trip id="299" type="vTypeMotorcycle" depart="330.00" from="E2TL" to="TL2W"/>
    <trip id="303" type="vTypeCar" depart="335.00" from="N2TL" to="TL2S"/>
    <trip id="304" type="vTypeMotorcycle" depart="335.00" from="W2TL" to="TL2E"/>
    <trip id="305" type="vTypeMotorcycle" depart="338.00" from="E2TL" to="TL2W"/>
    <trip id="306" type="vTypeMotorcycle" depart="339.00" from="E2TL" to="TL2W"/>
    <trip id="308" type="vTypeCar" depart="340.00" from="E2TL" to="TL2W"/>
    <trip id="309" type="vTypeMotorcycle" depart="341.00" from="N2TL" to="TL2S"/>
    <trip id="311" type="vTypeCar" depart="342.00" from="S2TL" to="TL2N"/>
    <trip id="312" type="vTypeMotorcycle" depart="343.00" from="N2TL" to="TL2W"/>
    <trip id="313" type="vTypeMotorcycle" depart="345.00" from="N2TL" to="TL2W"/>
    <trip id="314" type="vTypeCar" depart="345.00" from="W2TL" to="TL2N"/>
    <trip id="315" type="vTypeCar" depart="345.00" from="W2TL" to="TL2N"/>
    <trip id="316" type="vTypeCar" depart="347.00" from="E2TL" to="TL2S"/>
    <trip id="318" type="vTypeCar" depart="349.00" from="S2TL" to="TL2N"/>
    <trip id="319" type="vTypeMotorcycle" depart="350.00" from="N2TL" to="TL2E"/>
    <trip id="320" type="vTypeMotorcycle" depart="351.00" from="S2TL" to="TL2N"/>
    <trip id="321" type="vTypeMotorcycle" depart="352.00" from="N2TL" to="TL2E"/>
    <trip id="324" type="vTypeMotorcycle" depart="354.00" from="S2TL" to="TL2E"/>
    <trip id="325" type="vTypeMotorcycle" depart="359.00" from="S2TL" to="TL2N"/>
    <trip id="326" type="vTypeMotorcycle" depart="359.00" from="S2TL" to="TL2E"/>
    <trip id="327" type="vTypeCar" depart="360.00" from="N2TL" to="TL2E"/>
    <trip id="328" type="vTypeMotorcycle" depart="361.00" from="E2TL" to="TL2S"/>
    <trip id="329" type="vTypeMotorcycle" depart="361.00" from="W2TL" to="TL2N"/>
    <trip id="331" type="vTypeCar" depart="366.00" from="S2TL" to="TL2N"/>
    <trip id="332" type="vTypeMotorcycle" depart="367.00" from="N2TL" to="TL2W"/>
    <trip id="334" type="vTypeCar" depart="369.00" from="S2TL" to="TL2E"/>
    <trip id="335" type="vTypeCar" depart="371.00" from="W2TL" to="TL2N"/>
    <trip id="336" type="vTypeCar" depart="371.00" from="S2TL" to="TL2E"/>
    <trip id="337" type="vTypeCar" depart="374.00" from="N2TL" to="TL2W"/>
    <trip id="339" type="vTypeMotorcycle" depart="375.00" from="N2TL" to="TL2S"/>
    <trip id="340" type="vTypeMotorcycle" depart="377.00" from="W2TL" to="TL2N"/>
    <trip id="343" type="vTypeMotorcycle" depart="380.00" from="S2TL" to="TL2N"/>
    <trip id="344" type="vTypeMotorcycle" depart="381.00" from="S2TL" to="TL2E"/>
    <trip id="347" type="vTypeMotorcycle" depart="382.00" from="E2TL" to="TL2N"/>
    <trip id="348" type="vTypeMotorcycle" depart="383.00" from="S2TL" to="TL2W"/>
    <trip id="349" type="vTypeCar" depart="383.00" from="W2TL" to="TL2E"/>
    <trip id="351" type="vTypeCar" depart="384.00" from="W2TL" to="TL2S"/>
    <trip id="352" type="vTypeCar" depart="385.00" from="E2TL" to="TL2S"/>
    <trip id="356" type="vTypeMotorcycle" depart="390.00" from="W2TL" to="TL2S"/>
    <trip id="357" type="vTypeMotorcycle" depart="391.00" from="N2TL" to="TL2E"/>
    <trip id="359" type="vTypeMotorcycle" depart="391.00" from="W2TL" to="TL2N"/>
    <trip id="360" type="vTypeMotorcycle" depart="391.00" from="E2TL" to="TL2N"/>
    <trip id="361" type="vTypeCar" depart="392.00" from="S2TL" to="TL2W"/>
    <trip id="363" type="vTypeMotorcycle" depart="397.00" from="W2TL" to="TL2N"/>
    <trip id="364" type="vTypeMotorcycle" depart="398.00" from="E2TL" to="TL2W"/>
    <trip id="365" type="vTypeMotorcycle" depart="401.00" from="N2TL" to="TL2E"/>
    <trip id="366" type="vTypeMotorcycle" depart="402.00" from="W2TL" to="TL2N"/>
    <trip id="367" type="vTypeCar" depart="402.00" from="E2TL" to="TL2N"/>
    <trip id="368" type="vTypeMotorcycle" depart="404.00" from="E2TL" to="TL2W"/>
    <trip id="369" type="vTypeCar" depart="404.00" from="N2TL" to="TL2E"/>
    <trip id="370" type="vTypeCar" depart="404.00" from="W2TL" to="TL2S"/>
    <trip id="371" type="vTypeMotorcycle" depart="404.00" from="N2TL" to="TL2W"/>
    <trip id="372" type="vTypeMotorcycle" depart="404.00" from="N2TL" to="TL2S"/>
    <trip id="373" type="vTypeCar" depart="406.00" from="E2TL" to="TL2N"/>
    <trip id="374" type="vTypeCar" depart="406.00" from="N2TL" to="TL2W"/>
    <trip id="375" type="vTypeCar" depart="406.00" from="E2TL" to="TL2S"/>
    <trip id="376" type="vTypeMotorcycle" depart="409.00" from="S2TL" to="TL2W"/>
    <trip id="378" type="vTypeMotorcycle" depart="412.00" from="N2TL" to="TL2W"/>
    <trip id="379" type="vTypeMotorcycle" depart="412.00" from="S2TL" to="TL2E"/>
    <trip id="380" type="vTypeMotorcycle" depart="413.00" from="S2TL" to="TL2W"/>
    <trip id="381" type="vTypeMotorcycle" depart="413.00" from="E2TL" to="TL2S"/>
    <trip id="382" type="vTypeCar" depart="414.00" from="N2TL" to="TL2W"/>
    <trip id="383" type="vTypeMotorcycle" depart="416.00" from="N2TL" to="TL2W"/>
    <trip id="384" type="vTypeMotorcycle" depart="417.00" from="W2TL" to="TL2S"/>
    <trip id="385" type="vTypeMotorcycle" depart="420.00" from="W2TL" to="TL2N"/>
    <trip id="388" type="vTypeMotorcycle" depart="423.00" from="W2TL" to="TL2E"/>
    <trip id="391" type="vTypeMotorcycle" depart="426.00" from="W2TL" to="TL2N"/>
    <trip id="392" type="vTypeMotorcycle" depart="427.00" from="S2TL" to="TL2W"/>
    <trip id="393" type="vTypeMotorcycle" depart="427.00" from="W2TL" to="TL2N"/>
    <trip id="394" type="vTypeCar" depart="430.00" from="N2TL" to="TL2S"/>
    <trip id="395" type="vTypeCar" depart="431.00" from="N2TL" to="TL2S"/>
    <trip id="396" type="vTypeCar" depart="433.00" from="E2TL" to="TL2S"/>
    <trip id="398" type="vTypeMotorcycle" depart="434.00" from="E2TL" to="TL2S"/>
    <trip id="399" type="vTypeCar" depart="435.00" from="E2TL" to="TL2S"/>
    <trip id="400" type="vTypeMotorcycle" depart="436.00" from="W2TL" to="TL2E"/>
    <trip id="401" type="vTypeCar" depart="436.00" from="S2TL" to="TL2W"/>
    <trip id="402" type="vTypeCar" depart="437.00" from="N2TL" to="TL2S"/>
    <trip id="403" type="vTypeMotorcycle" depart="438.00" from="E2TL" to="TL2N"/>
    <trip id="405" type="vTypeCar" depart="438.00" from="E2TL" to="TL2N"/>
    <trip id="406" type="vTypeMotorcycle" depart="442.00" from="S2TL" to="TL2E"/>
    <trip id="407" type="vTypeMotorcycle" depart="442.00" from="E2TL" to="TL2S"/>
    <trip id="408" type="vTypeCar" depart="444.00" from="E2TL" to="TL2W"/>
    <trip id="409" type="vTypeCar" depart="445.00" from="W2TL" to="TL2N"/>
    <trip id="410" type="vTypeMotorcycle" depart="445.00" from="S2TL" to="TL2N"/>
    <trip id="412" type="vTypeMotorcycle" depart="448.00" from="E2TL" to="TL2S"/>
    <trip id="413" type="vTypeMotorcycle" depart="451.00" from="N2TL" to="TL2S"/>
    <trip id="415" type="vTypeMotorcycle" depart="454.00" from="W2TL" to="TL2E"/>
    <trip id="416" type="vTypeMotorcycle" depart="454.00" from="E2TL" to="TL2W"/>
    <trip id="418" type="vTypeMotorcycle" depart="457.00" from="S2TL" to="TL2N"/>
    <trip id="419" type="vTypeMotorcycle" depart="457.00" from="S2TL" to="TL2E"/>
    <trip id="420" type="vTypeMotorcycle" depart="459.00" from="S2TL" to="TL2E"/>
    <trip id="421" type="vTypeMotorcycle" depart="459.00" from="W2TL" to="TL2E"/>
    <trip id="422" type="vTypeMotorcycle" depart="460.00" from="N2TL" to="TL2S"/>
    <trip id="423" type="vTypeCar" depart="464.00" from="W2TL" to="TL2E"/>
    <trip id="424" type="vTypeCar" depart="465.00" from="W2TL" to="TL2N"/>
    <trip id="425" type="vTypeMotorcycle" depart="466.00" from="N2TL" to="TL2E"/>
    <trip id="427" type="vTypeMotorcycle" depart="466.00" from="N2TL" to="TL2W"/>
    <trip id="428" type="vTypeMotorcycle" depart="469.00" from="E2TL" to="TL2W"/>
    <trip id="429" type="vTypeCar" depart="469.00" from="S2TL" to="TL2W"/>
    <trip id="431" type="vTypeMotorcycle" depart="471.00" from="S2TL" to="TL2N"/>
    <trip id="432" type="vTypeMotorcycle" depart="471.00" from="E2TL" to="TL2N"/>
    <trip id="433" type="vTypeMotorcycle" depart="472.00" from="N2TL" to="TL2W"/>
    <trip id="434" type="vTypeMotorcycle" depart="475.00" from="S2TL" to="TL2E"/>
    <trip id="435" type="vTypeCar" depart="477.00" from="E2TL" to="TL2W"/>
    <trip id="436" type="vTypeMotorcycle" depart="479.00" from="N2TL" to="TL2W"/>
    <trip id="437" type="vTypeMotorcycle" depart="482.00" from="S2TL" to="TL2E"/>
    <trip id="438" type="vTypeMotorcycle" depart="482.00" from="E2TL" to="TL2W"/>
    <trip id="439" type="vTypeMotorcycle" depart="483.00" from="W2TL" to="TL2N"/>
    <trip id="440" type="vTypeMotorcycle" depart="484.00" from="E2TL" to="TL2W"/>
    <trip id="442" type="vTypeMotorcycle" depart="485.00" from="N2TL" to="TL2W"/>
    <trip id="444" type="vTypeMotorcycle" depart="487.00" from="N2TL" to="TL2W"/>
    <trip id="445" type="vTypeCar" depart="488.00" from="E2TL" to="TL2W"/>
    <trip id="447" type="vTypeMotorcycle" depart="489.00" from="E2TL" to="TL2S"/>
    <trip id="449" type="vTypeMotorcycle" depart="490.00" from="W2TL" to="TL2S"/>
    <trip id="451" type="vTypeMotorcycle" depart="492.00" from="W2TL" to="TL2E"/>
    <trip id="452" type="vTypeCar" depart="492.00" from="N2TL" to="TL2S"/>
    <trip id="454" type="vTypeMotorcycle" depart="495.00" from="S2TL" to="TL2E"/>
    <trip id="455" type="vTypeMotorcycle" depart="496.00" from="E2TL" to="TL2S"/>
    <trip id="456" type="vTypeMotorcycle" depart="496.00" from="W2TL" to="TL2S"/>
    <trip id="459" type="vTypeMotorcycle" depart="498.00" from="W2TL" to="TL2S"/>
    <trip id="460" type="vTypeMotorcycle" depart="498.00" from="E2TL" to="TL2N"/>
    <trip id="461" type="vTypeMotorcycle" depart="499.00" from="N2TL" to="TL2S"/>
    <trip id="462" type="vTypeCar" depart="500.00" from="S2TL" to="TL2W"/>
    <trip id="463" type="vTypeMotorcycle" depart="502.00" from="E2TL" to="TL2W"/>
    <trip id="464" type="vTypeMotorcycle" depart="502.00" from="S2TL" to="TL2N"/>
    <trip id="465" type="vTypeCar" depart="502.00" from="S2TL" to="TL2W"/>
    <trip id="466" type="vTypeCar" depart="505.00" from="N2TL" to="TL2S"/>
    <trip id="467" type="vTypeMotorcycle" depart="505.00" from="E2TL" to="TL2N"/>
    <trip id="469" type="vTypeMotorcycle" depart="508.00" from="W2TL" to="TL2S"/>
    <trip id="470" type="vTypeMotorcycle" depart="508.00" from="S2TL" to="TL2E"/>