<?xml version="1.0" encoding="UTF-8"?>

<!-- generated on 2023-04-10 19:40:38.319283 by randomTrips.py v1_14_1+0000-f654d7b963e
<configuration>
    <additional-files value="./intersection/indian\vehicles.add.vtype.xml"/>
    <end value="4000"/>
    <net-file value="./intersection/indian\environment.net.xml"/>
    <random-depart value="True"/>
    <route-file value="./intersection/indian\episode_routes.rou.xml"/>
    <seed value="0"/>
    <trip-attributes value="type=&quot;typedist1&quot;"/>
    <output-trip-file value="./intersection/indian\trips.trips.xml"/>
    <validate value="True"/>
</configuration>
-->

<!-- generated on 2023-04-10 19:40:38 by Eclipse SUMO duarouter Version 1.14.1
<configuration xmlns:xsi="http://www.w3.org/2001/XMLSchema-instance" xsi:noNamespaceSchemaLocation="http://sumo.dlr.de/xsd/duarouterConfiguration.xsd">

    <input>
        <net-file value="./intersection/indian\environment.net.xml"/>
        <additional-files value="./intersection/indian\vehicles.add.vtype.xml"/>
        <route-files value="./intersection/indian\trips.trips.xml"/>
    </input>

    <output>
        <output-file value="./intersection/indian\trips.trips.xml.tmp"/>
        <alternatives-output value="NUL"/>
        <write-trips value="true"/>
    </output>

    <time>
        <begin value="0"/>
        <end value="4000"/>
    </time>

    <report>
        <no-warnings value="true"/>
        <ignore-errors value="true"/>
        <no-step-log value="true"/>
    </report>

</configuration>
-->

<routes xmlns:xsi="http://www.w3.org/2001/XMLSchema-instance" xsi:noNamespaceSchemaLocation="http://sumo.dlr.de/xsd/routes_file.xsd">
    <vType id="vTypeMotorcycle" probability="0.71" vClass="motorcycle" guiShape="motorcycle"/>
    <trip id="0" type="vTypeMotorcycle" depart="0.00" from="E2TL" to="TL2W"/>
    <trip id="1" type="vTypeMotorcycle" depart="0.00" from="W2TL" to="TL2S"/>
    <vType id="vTypeCar" probability="0.27" vClass="passenger" guiShape="passenger"/>
    <trip id="2" type="vTypeCar" depart="1.00" from="N2TL" to="TL2S"/>
    <trip id="3" type="vTypeMotorcycle" depart="1.00" from="E2TL" to="TL2W"/>
    <trip id="4" type="vTypeMotorcycle" depart="1.00" from="N2TL" to="TL2W"/>
    <trip id="6" type="vTypeMotorcycle" depart="2.00" from="S2TL" to="TL2E"/>
    <trip id="8" type="vTypeMotorcycle" depart="4.00" from="W2TL" to="TL2E"/>
    <trip id="9" type="vTypeMotorcycle" depart="4.00" from="E2TL" to="TL2N"/>
    <trip id="11" type="vTypeMotorcycle" depart="6.00" from="N2TL" to="TL2W"/>
    <trip id="12" type="vTypeMotorcycle" depart="6.00" from="E2TL" to="TL2N"/>
    <trip id="13" type="vTypeMotorcycle" depart="7.00" from="S2TL" to="TL2W"/>
    <trip id="14" type="vTypeMotorcycle" depart="9.00" from="E2TL" to="TL2N"/>
    <trip id="15" type="vTypeCar" depart="10.00" from="W2TL" to="TL2E"/>
    <trip id="16" type="vTypeCar" depart="11.00" from="S2TL" to="TL2N"/>
    <trip id="18" type="vTypeMotorcycle" depart="13.00" from="N2TL" to="TL2W"/>
    <trip id="20" type="vTypeCar" depart="15.00" from="E2TL" to="TL2W"/>
    <trip id="21" type="vTypeMotorcycle" depart="15.00" from="W2TL" to="TL2E"/>
    <trip id="22" type="vTypeMotorcycle" depart="15.00" from="W2TL" to="TL2E"/>
    <trip id="23" type="vTypeMotorcycle" depart="16.00" from="E2TL" to="TL2W"/>
    <trip id="24" type="vTypeMotorcycle" depart="18.00" from="W2TL" to="TL2S"/>
    <trip id="26" type="vTypeMotorcycle" depart="20.00" from="N2TL" to="TL2E"/>
    <trip id="27" type="vTypeMotorcycle" depart="21.00" from="S2TL" to="TL2E"/>
    <trip id="28" type="vTypeMotorcycle" depart="23.00" from="W2TL" to="TL2E"/>
    <trip id="29" type="vTypeCar" depart="24.00" from="E2TL" to="TL2N"/>
    <trip id="31" type="vTypeMotorcycle" depart="26.00" from="S2TL" to="TL2W"/>
    <trip id="32" type="vTypeMotorcycle" depart="26.00" from="E2TL" to="TL2N"/>
    <trip id="33" type="vTypeCar" depart="28.00" from="S2TL" to="TL2N"/>
    <trip id="34" type="vTypeMotorcycle" depart="29.00" from="E2TL" to="TL2S"/>
    <trip id="35" type="vTypeCar" depart="29.00" from="E2TL" to="TL2N"/>
    <trip id="37" type="vTypeMotorcycle" depart="32.00" from="N2TL" to="TL2S"/>
    <trip id="38" type="vTypeCar" depart="33.00" from="E2TL" to="TL2N"/>
    <trip id="42" type="vTypeCar" depart="36.00" from="S2TL" to="TL2W"/>
    <trip id="43" type="vTypeCar" depart="36.00" from="S2TL" to="TL2E"/>
    <trip id="45" type="vTypeMotorcycle" depart="37.00" from="N2TL" to="TL2S"/>
    <trip id="47" type="vTypeMotorcycle" depart="39.00" from="S2TL" to="TL2N"/>
    <trip id="49" type="vTypeMotorcycle" depart="40.00" from="N2TL" to="TL2W"/>
    <trip id="50" type="vTypeMotorcycle" depart="41.00" from="S2TL" to="TL2W"/>
    <trip id="52" type="vTypeMotorcycle" depart="43.00" from="W2TL" to="TL2E"/>
    <trip id="53" type="vTypeMotorcycle" depart="44.00" from="N2TL" to="TL2W"/>
    <trip id="54" type="vTypeMotorcycle" depart="47.00" from="N2TL" to="TL2S"/>
    <trip id="56" type="vTypeMotorcycle" depart="50.00" from="E2TL" to="TL2N"/>
    <trip id="58" type="vTypeCar" depart="54.00" from="S2TL" to="TL2E"/>
    <trip id="59" type="vTypeMotorcycle" depart="55.00" from="E2TL" to="TL2N"/>
    <trip id="60" type="vTypeCar" depart="55.00" from="W2TL" to="TL2E"/>
    <trip id="63" type="vTypeCar" depart="57.00" from="E2TL" to="TL2S"/>
    <trip id="64" type="vTypeMotorcycle" depart="57.00" from="E2TL" to="TL2S"/>
    <trip id="65" type="vTypeMotorcycle" depart="57.00" from="S2TL" to="TL2W"/>
    <trip id="66" type="vTypeMotorcycle" depart="58.00" from="S2TL" to="TL2W"/>
    <trip id="67" type="vTypeCar" depart="58.00" from="W2TL" to="TL2E"/>
    <trip id="68" type="vTypeCar" depart="60.00" from="E2TL" to="TL2S"/>
    <trip id="69" type="vTypeMotorcycle" depart="60.00" from="S2TL" to="TL2W"/>
    <trip id="70" type="vTypeMotorcycle" depart="62.00" from="E2TL" to="TL2N"/>
    <trip id="71" type="vTypeMotorcycle" depart="62.00" from="N2TL" to="TL2W"/>
    <trip id="72" type="vTypeCar" depart="62.00" from="N2TL" to="TL2W"/>
    <trip id="73" type="vTypeMotorcycle" depart="63.00" from="S2TL" to="TL2W"/>
    <trip id="74" type="vTypeCar" depart="64.00" from="S2TL" to="TL2W"/>
    <trip id="75" type="vTypeCar" depart="66.00" from="E2TL" to="TL2N"/>
    <trip id="76" type="vTypeCar" depart="67.00" from="S2TL" to="TL2W"/>
    <trip id="77" type="vTypeCar" depart="67.00" from="S2TL" to="TL2W"/>
    <trip id="80" type="vTypeMotorcycle" depart="76.00" from="N2TL" to="TL2E"/>
    <trip id="81" type="vTypeCar" depart="78.00" from="W2TL" to="TL2S"/>
    <trip id="83" type="vTypeMotorcycle" depart="79.00" from="W2TL" to="TL2E"/>
    <trip id="84" type="vTypeMotorcycle" depart="82.00" from="N2TL" to="TL2S"/>
    <trip id="85" type="vTypeMotorcycle" depart="83.00" from="N2TL" to="TL2E"/>
    <trip id="86" type="vTypeMotorcycle" depart="84.00" from="W2TL" to="TL2S"/>
    <trip id="88" type="vTypeMotorcycle" depart="84.00" from="E2TL" to="TL2W"/>
    <trip id="89" type="vTypeMotorcycle" depart="86.00" from="N2TL" to="TL2S"/>
    <trip id="91" type="vTypeMotorcycle" depart="87.00" from="S2TL" to="TL2E"/>
    <trip id="92" type="vTypeCar" depart="87.00" from="N2TL" to="TL2E"/>
    <trip id="93" type="vTypeMotorcycle" depart="88.00" from="N2TL" to="TL2S"/>
    <trip id="95" type="vTypeMotorcycle" depart="88.00" from="S2TL" to="TL2E"/>
    <trip id="96" type="vTypeMotorcycle" depart="89.00" from="W2TL" to="TL2S"/>
    <trip id="97" type="vTypeMotorcycle" depart="89.00" from="E2TL" to="TL2S"/>
    <trip id="98" type="vTypeMotorcycle" depart="90.00" from="E2TL" to="TL2S"/>
    <trip id="99" type="vTypeMotorcycle" depart="90.00" from="S2TL" to="TL2N"/>
    <trip id="100" type="vTypeMotorcycle" depart="92.00" from="N2TL" to="TL2S"/>
    <trip id="102" type="vTypeMotorcycle" depart="93.00" from="N2TL" to="TL2W"/>
    <trip id="106" type="vTypeMotorcycle" depart="97.00" from="N2TL" to="TL2W"/>
    <trip id="107" type="vTypeMotorcycle" depart="98.00" from="W2TL" to="TL2N"/>
    <trip id="108" type="vTypeMotorcycle" depart="99.00" from="E2TL" to="TL2S"/>
    <trip id="109" type="vTypeCar" depart="99.00" from="S2TL" to="TL2W"/>
    <trip id="110" type="vTypeMotorcycle" depart="100.00" from="W2TL" to="TL2E"/>
    <trip id="112" type="vTypeMotorcycle" depart="101.00" from="S2TL" to="TL2N"/>
    <trip id="114" type="vTypeMotorcycle" depart="103.00" from="E2TL" to="TL2S"/>
    <trip id="115" type="vTypeCar" depart="103.00" from="E2TL" to="TL2W"/>
    <trip id="116" type="vTypeMotorcycle" depart="104.00" from="W2TL" to="TL2S"/>
    <trip id="117" type="vTypeCar" depart="105.00" from="E2TL" to="TL2S"/>
    <trip id="118" type="vTypeMotorcycle" depart="106.00" from="N2TL" to="TL2E"/>
    <trip id="120" type="vTypeMotorcycle" depart="108.00" from="W2TL" to="TL2S"/>
    <trip id="121" type="vTypeCar" depart="109.00" from="W2TL" to="TL2E"/>
    <trip id="122" type="vTypeMotorcycle" depart="109.00" from="N2TL" to="TL2W"/>
    <trip id="123" type="vTypeMotorcycle" depart="109.00" from="S2TL" to="TL2E"/>
    <trip id="126" type="vTypeCar" depart="113.00" from="S2TL" to="TL2N"/>
    <trip id="127" type="vTypeMotorcycle" depart="113.00" from="E2TL" to="TL2W"/>
    <trip id="128" type="vTypeMotorcycle" depart="114.00" from="S2TL" to="TL2W"/>
    <trip id="129" type="vTypeMotorcycle" depart="114.00" from="E2TL" to="TL2W"/>
    <trip id="130" type="vTypeMotorcycle" depart="115.00" from="E2TL" to="TL2S"/>
    <trip id="131" type="vTypeMotorcycle" depart="116.00" from="N2TL" to="TL2E"/>
    <trip id="132" type="vTypeMotorcycle" depart="118.00" from="W2TL" to="TL2N"/>
    <trip id="133" type="vTypeMotorcycle" depart="120.00" from="W2TL" to="TL2S"/>
    <trip id="135" type="vTypeMotorcycle" depart="123.00" from="W2TL" to="TL2S"/>
    <trip id="137" type="vTypeCar" depart="125.00" from="E2TL" to="TL2S"/>
    <trip id="139" type="vTypeMotorcycle" depart="125.00" from="N2TL" to="TL2E"/>
    <trip id="140" type="vTypeMotorcycle" depart="127.00" from="N2TL" to="TL2E"/>
    <trip id="141" type="vTypeMotorcycle" depart="127.00" from="E2TL" to="TL2N"/>
    <trip id="142" type="vTypeMotorcycle" depart="128.00" from="W2TL" to="TL2E"/>
    <trip id="144" type="vTypeMotorcycle" depart="129.00" from="S2TL" to="TL2E"/>
    <trip id="146" type="vTypeMotorcycle" depart="132.00" from="S2TL" to="TL2W"/>
    <trip id="147" type="vTypeMotorcycle" depart="134.00" from="E2TL" to="TL2S"/>
    <trip id="148" type="vTypeCar" depart="135.00" from="E2TL" to="TL2N"/>
    <trip id="150" type="vTypeMotorcycle" depart="135.00" from="E2TL" to="TL2W"/>
    <trip id="151" type="vTypeMotorcycle" depart="136.00" from="S2TL" to="TL2W"/>
    <trip id="153" type="vTypeCar" depart="138.00" from="W2TL" to="TL2S"/>
    <trip id="154" type="vTypeMotorcycle" depart="140.00" from="W2TL" to="TL2E"/>
    <trip id="155" type="vTypeMotorcycle" depart="141.00" from="E2TL" to="TL2N"/>
    <trip id="156" type="vTypeCar" depart="142.00" from="N2TL" to="TL2S"/>
    <trip id="157" type="vTypeMotorcycle" depart="143.00" from="N2TL" to="TL2W"/>
    <trip id="158" type="vTypeMotorcycle" depart="143.00" from="S2TL" to="TL2N"/>
    <trip id="159" type="vTypeMotorcycle" depart="144.00" from="E2TL" to="TL2S"/>
    <trip id="160" type="vTypeCar" depart="145.00" from="S2TL" to="TL2E"/>
    <trip id="161" type="vTypeMotorcycle" depart="145.00" from="E2TL" to="TL2S"/>
    <vType id="vTypeBus" probability="0.01" vClass="bus" guiShape="bus"/>
    <trip id="164" type="vTypeBus" depart="147.00" from="N2TL" to="TL2E"/>
    <trip id="165" type="vTypeMotorcycle" depart="148.00" from="S2TL" to="TL2E"/>
    <trip id="168" type="vTypeMotorcycle" depart="150.00" from="E2TL" to="TL2S"/>
    <trip id="169" type="vTypeMotorcycle" depart="150.00" from="N2TL" to="TL2W"/>
    <trip id="172" type="vTypeCar" depart="156.00" from="W2TL" to="TL2E"/>
    <trip id="176" type="vTypeMotorcycle" depart="158.00" from="S2TL" to="TL2N"/>
    <trip id="177" type="vTypeMotorcycle" depart="158.00" from="W2TL" to="TL2S"/>
    <trip id="178" type="vTypeMotorcycle" depart="159.00" from="S2TL" to="TL2E"/>
    <trip id="179" type="vTypeCar" depart="160.00" from="N2TL" to="TL2W"/>
    <trip id="180" type="vTypeMotorcycle" depart="161.00" from="E2TL" to="TL2S"/>
    <trip id="181" type="vTypeCar" depart="161.00" from="W2TL" to="TL2N"/>
    <trip id="182" type="vTypeMotorcycle" depart="161.00" from="S2TL" to="TL2E"/>
    <trip id="184" type="vTypeCar" depart="164.00" from="N2TL" to="TL2S"/>
    <trip id="185" type="vTypeCar" depart="165.00" from="W2TL" to="TL2N"/>
    <trip id="186" type="vTypeCar" depart="165.00" from="N2TL" to="TL2S"/>
    <trip id="188" type="vTypeMotorcycle" depart="166.00" from="W2TL" to="TL2E"/>
    <trip id="189" type="vTypeMotorcycle" depart="166.00" from="E2TL" to="TL2N"/>
    <trip id="192" type="vTypeMotorcycle" depart="168.00" from="W2TL" to="TL2E"/>
    <trip id="193" type="vTypeCar" depart="168.00" from="E2TL" to="TL2N"/>
    <trip id="195" type="vTypeMotorcycle" depart="170.00" from="S2TL" to="TL2E"/>
    <trip id="196" type="vTypeCar" depart="171.00" from="S2TL" to="TL2N"/>
    <trip id="197" type="vTypeMotorcycle" depart="172.00" from="S2TL" to="TL2N"/>
    <trip id="198" type="vTypeMotorcycle" depart="172.00" from="W2TL" to="TL2E"/>
    <trip id="199" type="vTypeMotorcycle" depart="172.00" from="W2TL" to="TL2S"/>
    <trip id="200" type="vTypeMotorcycle" depart="173.00" from="N2TL" to="TL2S"/>
    <trip id="201" type="vTypeCar" depart="176.00" from="N2TL" to="TL2E"/>
    <trip id="204" type="vTypeMotorcycle" depart="178.00" from="W2TL" to="TL2N"/>
    <trip id="206" type="vTypeMotorcycle" depart="179.00" from="S2TL" to="TL2N"/>
    <trip id="207" type="vTypeCar" depart="180.00" from="E2TL" to="TL2W"/>
    <trip id="208" type="vTypeMotorcycle" depart="180.00" from="E2TL" to="TL2W"/>
    <trip id="209" type="vTypeCar" depart="180.00" from="S2TL" to="TL2W"/>
    <trip id="210" type="vTypeMotorcycle" depart="181.00" from="W2TL" to="TL2N"/>
    <trip id="211" type="vTypeCar" depart="182.00" from="N2TL" to="TL2E"/>
    <trip id="212" type="vTypeMotorcycle" depart="182.00" from="N2TL" to="TL2W"/>
    <trip id="214" type="vTypeMotorcycle" depart="185.00" from="E2TL" to="TL2W"/>
    <trip id="218" type="vTypeMotorcycle" depart="190.00" from="W2TL" to="TL2E"/>
    <trip id="221" type="vTypeCar" depart="192.00" from="S2TL" to="TL2W"/>
    <trip id="224" type="vTypeMotorcycle" depart="194.00" from="S2TL" to="TL2W"/>
    <trip id="225" type="vTypeMotorcycle" depart="197.00" from="E2TL" to="TL2S"/>
    <trip id="226" type="vTypeMotorcycle" depart="198.00" from="E2TL" to="TL2W"/>
    <trip id="227" type="vTypeCar" depart="199.00" from="W2TL" to="TL2S"/>
    <trip id="228" type="vTypeMotorcycle" depart="199.00" from="E2TL" to="TL2N"/>
    <trip id="230" type="vTypeCar" depart="203.00" from="W2TL" to="TL2S"/>
    <trip id="231" type="vTypeMotorcycle" depart="204.00" from="W2TL" to="TL2S"/>
    <trip id="232" type="vTypeCar" depart="209.00" from="E2TL" to="TL2W"/>
    <trip id="233" type="vTypeMotorcycle" depart="209.00" from="E2TL" to="TL2N"/>
    <trip id="234" type="vTypeMotorcycle" depart="210.00" from="S2TL" to="TL2N"/>
    <trip id="235" type="vTypeMotorcycle" depart="211.00" from="E2TL" to="TL2N"/>
    <trip id="236" type="vTypeMotorcycle" depart="213.00" from="E2TL" to="TL2W"/>
    <trip id="237" type="vTypeMotorcycle" depart="213.00" from="S2TL" to="TL2E"/>
    <trip id="238" type="vTypeMotorcycle" depart="214.00" from="W2TL" to="TL2E"/>
    <trip id="239" type="vTypeMotorcycle" depart="215.00" from="N2TL" to="TL2W"/>
    <trip id="240" type="vTypeCar" depart="219.00" from="W2TL" to="TL2N"/>
    <trip id="241" type="vTypeCar" depart="219.00" from="S2TL" to="TL2W"/>
    <trip id="243" type="vTypeCar" depart="220.00" from="S2TL" to="TL2W"/>
    <trip id="244" type="vTypeCar" depart="221.00" from="W2TL" to="TL2N"/>
    <trip id="245" type="vTypeCar" depart="221.00" from="N2TL" to="TL2S"/>
    <trip id="246" type="vTypeMotorcycle" depart="227.00" from="E2TL" to="TL2S"/>
    <trip id="247" type="vTypeCar" depart="229.00" from="W2TL" to="TL2N"/>
    <trip id="249" type="vTypeMotorcycle" depart="233.00" from="N2TL" to="TL2S"/>
    <trip id="250" type="vTypeCar" depart="234.00" from="E2TL" to="TL2W"/>
    <trip id="251" type="vTypeMotorcycle" depart="236.00" from="N2TL" to="TL2S"/>
    <trip id="252" type="vTypeMotorcycle" depart="237.00" from="N2TL" to="TL2S"/>
    <trip id="255" type="vTypeMotorcycle" depart="241.00" from="E2TL" to="TL2N"/>
    <trip id="257" type="vTypeMotorcycle" depart="244.00" from="N2TL" to="TL2S"/>
    <trip id="258" type="vTypeMotorcycle" depart="245.00" from="E2TL" to="TL2N"/>
    <trip id="259" type="vTypeMotorcycle" depart="246.00" from="W2TL" to="TL2E"/>
    <trip id="260" type="vTypeMotorcycle" depart="246.00" from="E2TL" to="TL2N"/>
    <trip id="261" type="vTypeMotorcycle" depart="250.00" from="S2TL" to="TL2W"/>
    <trip id="263" type="vTypeCar" depart="250.00" from="N2TL" to="TL2S"/>
    <trip id="264" type="vTypeCar" depart="251.00" from="W2TL" to="TL2N"/>
    <trip id="265" type="vTypeMotorcycle" depart="251.00" from="W2TL" to="TL2E"/>
    <trip id="266" type="vTypeMotorcycle" depart="254.00" from="S2TL" to="TL2E"/>
    <trip id="268" type="vTypeBus" depart="255.00" from="N2TL" to="TL2S"/>
    <trip id="269" type="vTypeMotorcycle" depart="255.00" from="N2TL" to="TL2W"/>
    <trip id="270" type="vTypeMotorcycle" depart="255.00" from="N2TL" to="TL2S"/>
    <trip id="271" type="vTypeCar" depart="255.00" from="W2TL" to="TL2S"/>
    <trip id="272" type="vTypeMotorcycle" depart="255.00" from="N2TL" to="TL2E"/>
    <trip id="273" type="vTypeMotorcycle" depart="257.00" from="W2TL" to="TL2S"/>
    <trip id="275" type="vTypeMotorcycle" depart="259.00" from="E2TL" to="TL2S"/>
    <trip id="277" type="vTypeMotorcycle" depart="260.00" from="W2TL" to="TL2S"/>
    <trip id="278" type="vTypeMotorcycle" depart="261.00" from="N2TL" to="TL2S"/>
    <trip id="281" type="vTypeMotorcycle" depart="265.00" from="E2TL" to="TL2W"/>
    <trip id="282" type="vTypeMotorcycle" depart="267.00" from="N2TL" to="TL2E"/>
    <trip id="283" type="vTypeMotorcycle" depart="268.00" from="N2TL" to="TL2S"/>
    <trip id="284" type="vTypeCar" depart="269.00" from="N2TL" to="TL2S"/>
    <trip id="285" type="vTypeMotorcycle" depart="270.00" from="W2TL" to="TL2N"/>
    <trip id="287" type="vTypeMotorcycle" depart="271.00" from="S2TL" to="TL2N"/>
    <trip id="288" type="vTypeMotorcycle" depart="272.00" from="E2TL" to="TL2W"/>
    <trip id="289" type="vTypeCar" depart="272.00" from="W2TL" to="TL2E"/>
    <trip id="291" type="vTypeMotorcycle" depart="274.00" from="E2TL" to="TL2W"/>
    <trip id="292" type="vTypeMotorcycle" depart="275.00" from="S2TL" to="TL2N"/>
    <trip id="293" type="vTypeMotorcycle" depart="277.00" from="E2TL" to="TL2N"/>
    <trip id="294" type="vTypeMotorcycle" depart="278.00" from="W2TL" to="TL2E"/>
    <trip id="296" type="vTypeMotorcycle" depart="281.00" from="S2TL" to="TL2E"/>
    <trip id="297" type="vTypeMotorcycle" depart="281.00" from="E2TL" to="TL2N"/>
    <trip id="298" type="vTypeMotorcycle" depart="282.00" from="S2TL" to="TL2N"/>
    <trip id="300" type="vTypeMotorcycle" depart="284.00" from="N2TL" to="TL2S"/>
    <trip id="301" type="vTypeMotorcycle" depart="286.00" from="S2TL" to="TL2N"/>
    <trip id="302" type="vTypeMotorcycle" depart="287.00" from="N2TL" to="TL2W"/>
    <trip id="303" type="vTypeCar" depart="288.00" from="S2TL" to="TL2W"/>
    <trip id="304" type="vTypeMotorcycle" depart="288.00" from="S2TL" to="TL2N"/>
    <trip id="305" type="vTypeMotorcycle" depart="288.00" from="S2TL" to="TL2N"/>
    <trip id="306" type="vTypeMotorcycle" depart="290.00" from="W2TL" to="TL2S"/>
    <trip id="307" type="vTypeMotorcycle" depart="293.00" from="W2TL" to="TL2S"/>
    <trip id="309" type="vTypeMotorcycle" depart="296.00" from="E2TL" to="TL2W"/>
    <trip id="310" type="vTypeMotorcycle" depart="299.00" from="W2TL" to="TL2N"/>
    <trip id="311" type="vTypeCar" depart="299.00" from="E2TL" to="TL2N"/>
    <trip id="312" type="vTypeMotorcycle" depart="302.00" from="W2TL" to="TL2S"/>
    <trip id="313" type="vTypeMotorcycle" depart="303.00" from="S2TL" to="TL2E"/>
    <trip id="314" type="vTypeCar" depart="307.00" from="E2TL" to="TL2S"/>
    <trip id="315" type="vTypeCar" depart="308.00" from="W2TL" to="TL2E"/>
    <trip id="318" type="vTypeCar" depart="312.00" from="E2TL" to="TL2N"/>
    <trip id="319" type="vTypeMotorcycle" depart="313.00" from="N2TL" to="TL2W"/>
    <trip id="320" type="vTypeMotorcycle" depart="313.00" from="N2TL" to="TL2E"/>
    <trip id="321" type="vTypeMotorcycle" depart="315.00" from="S2TL" to="TL2E"/>
    <trip id="322" type="vTypeMotorcycle" depart="317.00" from="W2TL" to="TL2S"/>
    <trip id="324" type="vTypeMotorcycle" depart="318.00" from="W2TL" to="TL2N"/>
    <trip id="325" type="vTypeMotorcycle" depart="319.00" from="N2TL" to="TL2E"/>
    <trip id="326" type="vTypeMotorcycle" depart="319.00" from="E2TL" to="TL2N"/>
    <trip id="328" type="vTypeMotorcycle" depart="319.00" from="E2TL" to="TL2S"/>
    <trip id="330" type="vTypeMotorcycle" depart="321.00" from="W2TL" to="TL2N"/>
    <trip id="333" type="vTypeMotorcycle" depart="322.00" from="N2TL" to="TL2S"/>
    <trip id="334" type="vTypeCar" depart="323.00" from="N2TL" to="TL2S"/>
    <trip id="336" type="vTypeCar" depart="327.00" from="N2TL" to="TL2W"/>
    <trip id="339" type="vTypeMotorcycle" depart="328.00" from="E2TL" to="TL2S"/>
    <trip id="340" type="vTypeMotorcycle" depart="329.00" from="N2TL" to="TL2W"/>
    <trip id="341" type="vTypeMotorcycle" depart="329.00" from="S2TL" to="TL2W"/>
    <trip id="345" type="vTypeCar" depart="330.00" from="N2TL" to="TL2W"/>
    <trip id="346" type="vTypeMotorcycle" depart="332.00" from="S2TL" to="TL2E"/>
    <trip id="347" type="vTypeMotorcycle" depart="333.00" from="E2TL" to="TL2N"/>
    <trip id="348" type="vTypeMotorcycle" depart="333.00" from="N2TL" to="TL2E"/>
    <trip id="349" type="vTypeCar" depart="333.00" from="E2TL" to="TL2N"/>
    <trip id="350" type="vTypeMotorcycle" depart="333.00" from="N2TL" to="TL2S"/>
    <trip id="351" type="vTypeCar" depart="334.00" from="E2TL" to="TL2W"/>
    <trip id="352" type="vTypeCar" depart="334.00" from="N2TL" to="TL2E"/>
    <trip id="353" type="vTypeMotorcycle" depart="334.00" from="E2TL" to="TL2W"/>
    <trip id="354" type="vTypeMotorcycle" depart="337.00" from="E2TL" to="TL2S"/>
    <trip id="355" type="vTypeMotorcycle" depart="337.00" from="E2TL" to="TL2S"/>
    <trip id="359" type="vTypeMotorcycle" depart="342.00" from="W2TL" to="TL2E"/>
    <trip id="360" type="vTypeMotorcycle" depart="342.00" from="N2TL" to="TL2W"/>
    <trip id="362" type="vTypeMotorcycle" depart="346.00" from="W2TL" to="TL2N"/>
    <trip id="363" type="vTypeMotorcycle" depart="346.00" from="W2TL" to="TL2N"/>
    <trip id="364" type="vTypeMotorcycle" depart="346.00" from="E2TL" to="TL2W"/>
    <trip id="366" type="vTypeMotorcycle" depart="346.00" from="E2TL" to="TL2S"/>
    <trip id="367" type="vTypeCar" depart="349.00" from="W2TL" to="TL2E"/>
    <trip id="368" type="vTypeMotorcycle" depart="349.00" from="W2TL" to="TL2S"/>
    <trip id="369" type="vTypeCar" depart="349.00" from="S2TL" to="TL2E"/>
    <trip id="370" type="vTypeCar" depart="350.00" from="W2TL" to="TL2N"/>
    <trip id="371" type="vTypeMotorcycle" depart="350.00" from="E2TL" to="TL2W"/>
    <trip id="374" type="vTypeCar" depart="354.00" from="E2TL" to="TL2W"/>
    <trip id="375" type="vTypeCar" depart="355.00" from="W2TL" to="TL2N"/>
    <trip id="377" type="vTypeMotorcycle" depart="358.00" from="W2TL" to="TL2S"/>
    <trip id="378" type="vTypeMotorcycle" depart="358.00" from="W2TL" to="TL2E"/>
    <trip id="379" type="vTypeMotorcycle" depart="359.00" from="E2TL" to="TL2W"/>
    <trip id="380" type="vTypeMotorcycle" depart="364.00" from="E2TL" to="TL2W"/>
    <trip id="381" type="vTypeMotorcycle" depart="364.00" from="W2TL" to="TL2N"/>
    <trip id="382" type="vTypeCar" depart="367.00" from="E2TL" to="TL2S"/>
    <trip id="383" type="vTypeMotorcycle" depart="367.00" from="N2TL" to="TL2S"/>
    <trip id="384" type="vTypeMotorcycle" depart="371.00" from="W2TL" to="TL2S"/>
    <trip id="385" type="vTypeMotorcycle" depart="371.00" from="E2TL" to="TL2N"/>
    <trip id="386" type="vTypeMotorcycle" depart="372.00" from="W2TL" to="TL2S"/>
    <trip id="387" type="vTypeMotorcycle" depart="373.00" from="E2TL" to="TL2S"/>
    <trip id="388" type="vTypeMotorcycle" depart="374.00" from="E2TL" to="TL2W"/>
    <trip id="389" type="vTypeMotorcycle" depart="375.00" from="E2TL" to="TL2S"/>
    <trip id="391" type="vTypeMotorcycle" depart="376.00" from="S2TL" to="TL2N"/>
    <trip id="393" type="vTypeMotorcycle" depart="377.00" from="W2TL" to="TL2E"/>
    <trip id="394" type="vTypeCar" depart="379.00" from="S2TL" to="TL2E"/>
    <trip id="395" type="vTypeCar" depart="382.00" from="N2TL" to="TL2W"/>
    <trip id="400" type="vTypeMotorcycle" depart="388.00" from="S2TL" to="TL2E"/>
    <trip id="401" type="vTypeCar" depart="392.00" from="E2TL" to="TL2N"/>
    <trip id="402" type="vTypeCar" depart="394.00" from="N2TL" to="TL2E"/>
    <trip id="404" type="vTypeMotorcycle" depart="396.00" from="W2TL" to="TL2E"/>
    <trip id="405" type="vTypeCar" depart="399.00" from="S2TL" to="TL2W"/>
    <trip id="406" type="vTypeMotorcycle" depart="400.00" from="N2TL" to="TL2W"/>
    <trip id="407" type="vTypeMotorcycle" depart="400.00" from="E2TL" to="TL2W"/>
    <trip id="408" type="vTypeCar" depart="401.00" from="E2TL" to="TL2N"/>
    <trip id="410" type="vTypeMotorcycle" depart="403.00" from="S2TL" to="TL2E"/>
    <trip id="413" type="vTypeMotorcycle" depart="405.00" from="W2TL" to="TL2S"/>
    <trip id="414" type="vTypeMotorcycle" depart="406.00" from="E2TL" to="TL2N"/>
    <trip id="415" type="vTypeMotorcycle" depart="406.00" from="N2TL" to="TL2W"/>
    <trip id="418" type="vTypeMotorcycle" depart="411.00" from="E2TL" to="TL2W"/>
    <trip id="419" type="vTypeMotorcycle" depart="412.00" from="S2TL" to="TL2W"/>
    <trip id="420" type="vTypeMotorcycle" depart="412.00" from="S2TL" to="TL2E"/>
    <trip id="421" type="vTypeMotorcycle" depart="413.00" from="S2TL" to="TL2E"/>
    <trip id="423" type="vTypeCar" depart="415.00" from="W2TL" to="TL2S"/>
    <trip id="424" type="vTypeCar" depart="416.00" from="N2TL" to="TL2W"/>
    <trip id="425" type="vTypeMotorcycle" depart="417.00" from="W2TL" to="TL2S"/>
    <trip id="428" type="vTypeMotorcycle" depart="422.00" from="N2TL" to="TL2W"/>
    <trip id="429" type="vTypeCar" depart="422.00" from="S2TL" to="TL2N"/>
    <trip id="430" type="vTypeCar" depart="422.00" from="E2TL" to="TL2S"/>
    <trip id="431" type="vTypeMotorcycle" depart="423.00" from="N2TL" to="TL2W"/>
    <trip id="432" type="vTypeMotorcycle" depart="424.00" from="E2TL" to="TL2S"/>
    <trip id="433" type="vTypeMotorcycle" depart="425.00" from="E2TL" to="TL2W"/>
    <trip id="434" type="vTypeMotorcycle" depart="426.00" from="S2TL" to="TL2W"/>
    <trip id="435" type="vTypeCar" depart="428.00" from="W2TL" to="TL2N"/>
    <trip id="436" type="vTypeMotorcycle" depart="429.00" from="S2TL" to="TL2N"/>
    <trip id="437" type="vTypeMotorcycle" depart="429.00" from="S2TL" to="TL2N"/>
    <trip id="438" type="vTypeMotorcycle" depart="429.00" from="W2TL" to="TL2N"/>
    <trip id="439" type="vTypeMotorcycle" depart="431.00" from="W2TL" to="TL2E"/>
    <trip id="441" type="vTypeMotorcycle" depart="431.00" from="W2TL" to="TL2S"/>
    <trip id="443" type="vTypeMotorcycle" depart="432.00" from="W2TL" to="TL2S"/>
    <trip id="444" type="vTypeMotorcycle" depart="436.00" from="S2TL" to="TL2W"/>
    <trip id="445" type="vTypeCar" depart="437.00" from="W2TL" to="TL2E"/>
    <trip id="446" type="vTypeCar" depart="438.00" from="W2TL" to="TL2E"/>
    <trip id="447" type="vTypeMotorcycle" depart="439.00" from="S2TL" to="TL2N"/>
    <trip id="448" type="vTypeMotorcycle" depart="441.00" from="N2TL" to="TL2E"/>
    <trip id="449" type="vTypeMotorcycle" depart="442.00" from="N2TL" to="TL2W"/>
    <trip id="450" type="vTypeMotorcycle" depart="442.00" from="W2TL" to="TL2S"/>
    <trip id="451" type="vTypeMotorcycle" depart="444.00" from="S2TL" to="TL2E"/>
    <trip id="452" type="vTypeCar" depart="445.00" from="E2TL" to="TL2W"/>
    <trip id="453" type="vTypeCar" depart="446.00" from="W2TL" to="TL2E"/>
    <trip id="454" type="vTypeMotorcycle" depart="446.00" from="W2TL" to="TL2S"/>
    <trip id="456" type="vTypeMotorcycle" depart="450.00" from="E2TL" to="TL2N"/>
    <trip id="457" type="vTypeMotorcycle" depart="451.00" from="W2TL" to="TL2N"/>
    <trip id="458" type="vTypeCar" depart="451.00" from="S2TL" to="TL2N"/>
    <trip id="461" type="vTypeMotorcycle" depart="454.00" from="N2TL" to="TL2S"/>
    <trip id="462" type="vTypeCar" depart="455.00" from="E2TL" to="TL2W"/>
    <trip id="464" type="vTypeMotorcycle" depart="459.00" from="N2TL" to="TL2S"/>
    <trip id="465" type="vTypeCar" depart="460.00" from="W2TL" to="TL2S"/>
    <trip id="466" type="vTypeCar" depart="460.00" from="W2TL" to="TL2N"/>
    <trip id="467" type="vTypeMotorcycle" depart="463.00" from="E2TL" to="TL2W"/>
    <trip id="468" type="vTypeMotorcycle" depart="464.00" from="S2TL" to="TL2E"/>
    <trip id="469" type="vTypeMotorcycle" depart="464.00" from="N2TL" to="TL2W"/>
    <trip id="470" type="vTypeMotorcycle" depart="468.00" from="W2TL" to="TL2N"/>
    <trip id="473" type="vTypeCar" depart="471.00" from="N2TL" to="TL2E"/>
    <trip id="474" type="vTypeMotorcycle" depart="471.00" from="S2TL" to="TL2E"/>
    <trip id="477" type="vTypeMotorcycle" depart="472.00" from="W2TL" to="TL2N"/>
    <trip id="478" type="vTypeMotorcycle" depart="472.00" from="E2TL" to="TL2W"/>
    <trip id="480" type="vTypeMotorcycle" depart="475.00" from="S2TL" to="TL2E"/>
    <trip id="482" type="vTypeMotorcycle" depart="475.00" from="N2TL" to="TL2S"/>
    <trip id="483" type="vTypeCar" depart="475.00" from="S2TL" to="TL2W"/>