<?xml version="1.0" encoding="UTF-8"?>

<!-- generated on 2023-02-21 19:28:04.954928 by randomTrips.py v1_14_1+0000-f654d7b963e
<configuration>
    <additional-files value="./intersection/indian\vehicles.add.vtype.xml"/>
    <end value="4000"/>
    <net-file value="./intersection/indian\environment.net.xml"/>
    <random-depart value="True"/>
    <route-file value="./intersection/indian\episode_routes.rou.xml"/>
    <seed value="10000"/>
    <trip-attributes value="type=&quot;typedist1&quot;"/>
    <output-trip-file value="./intersection/indian\trips.trips.xml"/>
    <validate value="True"/>
</configuration>
-->

<!-- generated on 2023-02-21 19:28:04 by Eclipse SUMO duarouter Version 1.14.1
<configuration xmlns:xsi="http://www.w3.org/2001/XMLSchema-instance" xsi:noNamespaceSchemaLocation="http://sumo.dlr.de/xsd/duarouterConfiguration.xsd">

    <input>
        <net-file value="./intersection/indian\environment.net.xml"/>
        <additional-files value="./intersection/indian\vehicles.add.vtype.xml"/>
        <route-files value="./intersection/indian\trips.trips.xml"/>
    </input>

    <output>
        <output-file value="./intersection/indian\trips.trips.xml.tmp"/>
        <alternatives-output value="NUL"/>
        <write-trips value="true"/>
    </output>

    <time>
        <begin value="0"/>
        <end value="4000"/>
    </time>

    <report>
        <no-warnings value="true"/>
        <ignore-errors value="true"/>
        <no-step-log value="true"/>
    </report>

</configuration>
-->

<routes xmlns:xsi="http://www.w3.org/2001/XMLSchema-instance" xsi:noNamespaceSchemaLocation="http://sumo.dlr.de/xsd/routes_file.xsd">
    <vType id="vTypeMotorcycle" probability="0.71" vClass="motorcycle" guiShape="motorcycle"/>
    <trip id="0" type="vTypeMotorcycle" depart="0.00" from="E2TL" to="TL2S"/>
    <trip id="1" type="vTypeMotorcycle" depart="1.00" from="W2TL" to="TL2E"/>
    <vType id="vTypeCar" probability="0.27" vClass="passenger" guiShape="passenger"/>
    <trip id="2" type="vTypeCar" depart="2.00" from="S2TL" to="TL2N"/>
    <trip id="5" type="vTypeCar" depart="4.00" from="E2TL" to="TL2S"/>
    <trip id="6" type="vTypeMotorcycle" depart="5.00" from="N2TL" to="TL2W"/>
    <trip id="8" type="vTypeMotorcycle" depart="6.00" from="N2TL" to="TL2E"/>
    <trip id="9" type="vTypeMotorcycle" depart="6.00" from="N2TL" to="TL2W"/>
    <trip id="10" type="vTypeCar" depart="6.00" from="S2TL" to="TL2W"/>
    <trip id="11" type="vTypeMotorcycle" depart="7.00" from="S2TL" to="TL2E"/>
    <trip id="12" type="vTypeMotorcycle" depart="8.00" from="W2TL" to="TL2S"/>
    <trip id="13" type="vTypeMotorcycle" depart="8.00" from="W2TL" to="TL2S"/>
    <trip id="14" type="vTypeMotorcycle" depart="9.00" from="N2TL" to="TL2S"/>
    <trip id="15" type="vTypeCar" depart="9.00" from="S2TL" to="TL2E"/>
    <trip id="17" type="vTypeMotorcycle" depart="10.00" from="W2TL" to="TL2E"/>
    <trip id="19" type="vTypeMotorcycle" depart="11.00" from="E2TL" to="TL2S"/>
    <trip id="20" type="vTypeCar" depart="13.00" from="N2TL" to="TL2E"/>
    <trip id="23" type="vTypeMotorcycle" depart="15.00" from="N2TL" to="TL2S"/>
    <trip id="26" type="vTypeMotorcycle" depart="18.00" from="N2TL" to="TL2E"/>
    <trip id="27" type="vTypeMotorcycle" depart="18.00" from="S2TL" to="TL2W"/>
    <trip id="28" type="vTypeMotorcycle" depart="19.00" from="S2TL" to="TL2N"/>
    <trip id="29" type="vTypeCar" depart="19.00" from="W2TL" to="TL2S"/>
    <trip id="30" type="vTypeCar" depart="22.00" from="W2TL" to="TL2S"/>
    <trip id="31" type="vTypeMotorcycle" depart="22.00" from="S2TL" to="TL2E"/>
    <trip id="33" type="vTypeCar" depart="24.00" from="E2TL" to="TL2S"/>
    <trip id="34" type="vTypeMotorcycle" depart="25.00" from="S2TL" to="TL2N"/>
    <trip id="35" type="vTypeCar" depart="26.00" from="W2TL" to="TL2N"/>
    <trip id="36" type="vTypeMotorcycle" depart="26.00" from="S2TL" to="TL2E"/>
    <trip id="38" type="vTypeCar" depart="27.00" from="W2TL" to="TL2E"/>
    <trip id="39" type="vTypeCar" depart="28.00" from="N2TL" to="TL2E"/>
    <trip id="41" type="vTypeMotorcycle" depart="31.00" from="E2TL" to="TL2W"/>
    <trip id="42" type="vTypeCar" depart="31.00" from="N2TL" to="TL2E"/>
    <trip id="43" type="vTypeCar" depart="33.00" from="W2TL" to="TL2N"/>
    <trip id="44" type="vTypeCar" depart="34.00" from="N2TL" to="TL2S"/>
    <trip id="45" type="vTypeMotorcycle" depart="34.00" from="N2TL" to="TL2E"/>
    <trip id="48" type="vTypeCar" depart="39.00" from="N2TL" to="TL2W"/>
    <trip id="49" type="vTypeMotorcycle" depart="40.00" from="E2TL" to="TL2W"/>
    <trip id="51" type="vTypeMotorcycle" depart="41.00" from="S2TL" to="TL2E"/>
    <trip id="54" type="vTypeMotorcycle" depart="45.00" from="W2TL" to="TL2S"/>
    <trip id="55" type="vTypeMotorcycle" depart="46.00" from="W2TL" to="TL2E"/>
    <trip id="56" type="vTypeMotorcycle" depart="47.00" from="E2TL" to="TL2W"/>
    <trip id="57" type="vTypeMotorcycle" depart="47.00" from="E2TL" to="TL2N"/>
    <trip id="59" type="vTypeMotorcycle" depart="49.00" from="N2TL" to="TL2S"/>
    <trip id="60" type="vTypeCar" depart="52.00" from="E2TL" to="TL2N"/>
    <trip id="61" type="vTypeMotorcycle" depart="52.00" from="W2TL" to="TL2E"/>
    <trip id="63" type="vTypeCar" depart="54.00" from="W2TL" to="TL2N"/>
    <trip id="64" type="vTypeMotorcycle" depart="55.00" from="W2TL" to="TL2E"/>
    <trip id="66" type="vTypeMotorcycle" depart="58.00" from="W2TL" to="TL2E"/>
    <trip id="67" type="vTypeCar" depart="58.00" from="S2TL" to="TL2N"/>
    <trip id="68" type="vTypeCar" depart="60.00" from="N2TL" to="TL2S"/>
    <trip id="69" type="vTypeMotorcycle" depart="62.00" from="W2TL" to="TL2E"/>
    <trip id="71" type="vTypeMotorcycle" depart="64.00" from="N2TL" to="TL2S"/>
    <trip id="73" type="vTypeMotorcycle" depart="65.00" from="S2TL" to="TL2W"/>
    <trip id="74" type="vTypeCar" depart="66.00" from="E2TL" to="TL2W"/>
    <trip id="75" type="vTypeCar" depart="69.00" from="N2TL" to="TL2W"/>
    <trip id="76" type="vTypeCar" depart="69.00" from="N2TL" to="TL2E"/>
    <trip id="77" type="vTypeCar" depart="70.00" from="W2TL" to="TL2N"/>
    <trip id="78" type="vTypeMotorcycle" depart="70.00" from="S2TL" to="TL2W"/>
    <trip id="79" type="vTypeMotorcycle" depart="71.00" from="N2TL" to="TL2W"/>
    <trip id="81" type="vTypeCar" depart="71.00" from="N2TL" to="TL2E"/>
    <trip id="82" type="vTypeMotorcycle" depart="71.00" from="E2TL" to="TL2N"/>
    <trip id="83" type="vTypeMotorcycle" depart="74.00" from="W2TL" to="TL2N"/>
    <trip id="84" type="vTypeMotorcycle" depart="74.00" from="S2TL" to="TL2N"/>
    <trip id="86" type="vTypeMotorcycle" depart="80.00" from="N2TL" to="TL2W"/>
    <trip id="87" type="vTypeMotorcycle" depart="80.00" from="E2TL" to="TL2W"/>
    <trip id="88" type="vTypeMotorcycle" depart="84.00" from="E2TL" to="TL2N"/>
    <trip id="90" type="vTypeMotorcycle" depart="85.00" from="S2TL" to="TL2N"/>
    <trip id="91" type="vTypeMotorcycle" depart="87.00" from="W2TL" to="TL2E"/>
    <trip id="92" type="vTypeCar" depart="92.00" from="W2TL" to="TL2E"/>
    <trip id="93" type="vTypeMotorcycle" depart="93.00" from="E2TL" to="TL2W"/>
    <trip id="94" type="vTypeCar" depart="93.00" from="N2TL" to="TL2S"/>
    <trip id="95" type="vTypeMotorcycle" depart="96.00" from="W2TL" to="TL2S"/>
    <trip id="96" type="vTypeMotorcycle" depart="98.00" from="E2TL" to="TL2W"/>
    <trip id="97" type="vTypeMotorcycle" depart="100.00" from="E2TL" to="TL2N"/>
    <trip id="98" type="vTypeMotorcycle" depart="100.00" from="N2TL" to="TL2E"/>
    <trip id="99" type="vTypeMotorcycle" depart="100.00" from="E2TL" to="TL2N"/>
    <trip id="100" type="vTypeMotorcycle" depart="100.00" from="W2TL" to="TL2N"/>
    <trip id="101" type="vTypeMotorcycle" depart="102.00" from="N2TL" to="TL2S"/>
    <trip id="102" type="vTypeMotorcycle" depart="103.00" from="S2TL" to="TL2N"/>
    <trip id="103" type="vTypeMotorcycle" depart="103.00" from="W2TL" to="TL2E"/>
    <trip id="104" type="vTypeMotorcycle" depart="103.00" from="E2TL" to="TL2N"/>
    <trip id="105" type="vTypeMotorcycle" depart="104.00" from="N2TL" to="TL2W"/>
    <trip id="107" type="vTypeMotorcycle" depart="105.00" from="W2TL" to="TL2E"/>
    <trip id="110" type="vTypeMotorcycle" depart="108.00" from="S2TL" to="TL2W"/>
    <trip id="111" type="vTypeMotorcycle" depart="109.00" from="N2TL" to="TL2S"/>
    <trip id="113" type="vTypeMotorcycle" depart="111.00" from="E2TL" to="TL2W"/>
    <trip id="114" type="vTypeMotorcycle" depart="111.00" from="N2TL" to="TL2S"/>
    <trip id="116" type="vTypeMotorcycle" depart="112.00" from="W2TL" to="TL2N"/>
    <trip id="117" type="vTypeCar" depart="113.00" from="N2TL" to="TL2E"/>
    <trip id="118" type="vTypeMotorcycle" depart="114.00" from="E2TL" to="TL2S"/>
    <trip id="119" type="vTypeMotorcycle" depart="116.00" from="W2TL" to="TL2S"/>
    <trip id="120" type="vTypeMotorcycle" depart="116.00" from="E2TL" to="TL2S"/>
    <trip id="121" type="vTypeCar" depart="117.00" from="E2TL" to="TL2N"/>
    <trip id="122" type="vTypeMotorcycle" depart="117.00" from="W2TL" to="TL2N"/>
    <trip id="124" type="vTypeMotorcycle" depart="119.00" from="S2TL" to="TL2W"/>
    <trip id="125" type="vTypeMotorcycle" depart="120.00" from="W2TL" to="TL2E"/>
    <trip id="127" type="vTypeMotorcycle" depart="122.00" from="W2TL" to="TL2S"/>
    <trip id="128" type="vTypeMotorcycle" depart="123.00" from="W2TL" to="TL2E"/>
    <trip id="129" type="vTypeMotorcycle" depart="124.00" from="N2TL" to="TL2W"/>
    <trip id="130" type="vTypeMotorcycle" depart="124.00" from="N2TL" to="TL2E"/>
    <trip id="131" type="vTypeMotorcycle" depart="125.00" from="S2TL" to="TL2W"/>
    <trip id="132" type="vTypeMotorcycle" depart="126.00" from="N2TL" to="TL2S"/>
    <trip id="133" type="vTypeMotorcycle" depart="126.00" from="N2TL" to="TL2E"/>
    <trip id="134" type="vTypeMotorcycle" depart="127.00" from="E2TL" to="TL2N"/>
    <trip id="135" type="vTypeMotorcycle" depart="129.00" from="E2TL" to="TL2W"/>
    <trip id="136" type="vTypeMotorcycle" depart="130.00" from="N2TL" to="TL2W"/>
    <trip id="138" type="vTypeMotorcycle" depart="132.00" from="N2TL" to="TL2W"/>
    <trip id="139" type="vTypeMotorcycle" depart="132.00" from="E2TL" to="TL2S"/>
    <trip id="140" type="vTypeMotorcycle" depart="132.00" from="S2TL" to="TL2E"/>
    <trip id="141" type="vTypeMotorcycle" depart="132.00" from="N2TL" to="TL2S"/>
    <trip id="142" type="vTypeMotorcycle" depart="135.00" from="S2TL" to="TL2N"/>
    <trip id="144" type="vTypeMotorcycle" depart="139.00" from="E2TL" to="TL2N"/>
    <trip id="145" type="vTypeMotorcycle" depart="139.00" from="N2TL" to="TL2S"/>
    <trip id="146" type="vTypeMotorcycle" depart="141.00" from="S2TL" to="TL2N"/>
    <trip id="147" type="vTypeMotorcycle" depart="142.00" from="S2TL" to="TL2W"/>
    <trip id="148" type="vTypeCar" depart="142.00" from="N2TL" to="TL2S"/>
    <trip id="149" type="vTypeMotorcycle" depart="144.00" from="S2TL" to="TL2W"/>
    <trip id="151" type="vTypeMotorcycle" depart="147.00" from="S2TL" to="TL2W"/>
    <trip id="152" type="vTypeMotorcycle" depart="149.00" from="N2TL" to="TL2S"/>
    <trip id="153" type="vTypeCar" depart="149.00" from="E2TL" to="TL2W"/>
    <trip id="154" type="vTypeMotorcycle" depart="150.00" from="W2TL" to="TL2N"/>
    <trip id="155" type="vTypeMotorcycle" depart="151.00" from="S2TL" to="TL2E"/>
    <trip id="156" type="vTypeCar" depart="152.00" from="W2TL" to="TL2N"/>
    <trip id="157" type="vTypeMotorcycle" depart="153.00" from="S2TL" to="TL2W"/>
    <trip id="158" type="vTypeMotorcycle" depart="156.00" from="W2TL" to="TL2E"/>
    <trip id="159" type="vTypeMotorcycle" depart="158.00" from="W2TL" to="TL2E"/>
    <trip id="162" type="vTypeMotorcycle" depart="159.00" from="S2TL" to="TL2W"/>
    <trip id="163" type="vTypeMotorcycle" depart="160.00" from="S2TL" to="TL2W"/>
    <vType id="vTypeBus" probability="0.01" vClass="bus" guiShape="bus"/>
    <trip id="164" type="vTypeBus" depart="160.00" from="W2TL" to="TL2S"/>
    <trip id="165" type="vTypeMotorcycle" depart="164.00" from="W2TL" to="TL2S"/>
    <trip id="167" type="vTypeMotorcycle" depart="167.00" from="N2TL" to="TL2S"/>
    <trip id="169" type="vTypeMotorcycle" depart="172.00" from="W2TL" to="TL2E"/>
    <trip id="170" type="vTypeMotorcycle" depart="173.00" from="W2TL" to="TL2E"/>
    <trip id="171" type="vTypeCar" depart="174.00" from="E2TL" to="TL2N"/>
    <trip id="172" type="vTypeCar" depart="175.00" from="W2TL" to="TL2S"/>
    <trip id="173" type="vTypeMotorcycle" depart="177.00" from="W2TL" to="TL2S"/>
    <trip id="174" type="vTypeMotorcycle" depart="180.00" from="S2TL" to="TL2E"/>
    <trip id="175" type="vTypeMotorcycle" depart="180.00" from="N2TL" to="TL2E"/>
    <trip id="176" type="vTypeMotorcycle" depart="180.00" from="S2TL" to="TL2E"/>
    <trip id="177" type="vTypeMotorcycle" depart="181.00" from="S2TL" to="TL2N"/>
    <trip id="179" type="vTypeCar" depart="183.00" from="S2TL" to="TL2W"/>
    <trip id="180" type="vTypeMotorcycle" depart="184.00" from="N2TL" to="TL2W"/>
    <trip id="181" type="vTypeCar" depart="184.00" from="N2TL" to="TL2S"/>
    <trip id="182" type="vTypeMotorcycle" depart="186.00" from="E2TL" to="TL2N"/>
    <trip id="183" type="vTypeCar" depart="188.00" from="S2TL" to="TL2E"/>
    <trip id="184" type="vTypeCar" depart="188.00" from="W2TL" to="TL2S"/>
    <trip id="187" type="vTypeCar" depart="194.00" from="S2TL" to="TL2W"/>
    <trip id="188" type="vTypeMotorcycle" depart="197.00" from="N2TL" to="TL2E"/>
    <trip id="189" type="vTypeMotorcycle" depart="197.00" from="E2TL" to="TL2S"/>
    <trip id="190" type="vTypeCar" depart="198.00" from="W2TL" to="TL2E"/>
    <trip id="191" type="vTypeMotorcycle" depart="198.00" from="S2TL" to="TL2W"/>
    <trip id="192" type="vTypeMotorcycle" depart="198.00" from="W2TL" to="TL2N"/>
    <trip id="193" type="vTypeCar" depart="199.00" from="N2TL" to="TL2W"/>
    <trip id="194" type="vTypeCar" depart="201.00" from="W2TL" to="TL2N"/>
    <trip id="196" type="vTypeCar" depart="203.00" from="E2TL" to="TL2W"/>
    <trip id="197" type="vTypeMotorcycle" depart="204.00" from="E2TL" to="TL2N"/>
    <trip id="198" type="vTypeMotorcycle" depart="206.00" from="S2TL" to="TL2E"/>
    <trip id="199" type="vTypeMotorcycle" depart="206.00" from="W2TL" to="TL2S"/>
    <trip id="201" type="vTypeCar" depart="208.00" from="E2TL" to="TL2S"/>
    <trip id="202" type="vTypeMotorcycle" depart="209.00" from="W2TL" to="TL2N"/>
    <trip id="203" type="vTypeCar" depart="209.00" from="N2TL" to="TL2W"/>
    <trip id="205" type="vTypeMotorcycle" depart="209.00" from="E2TL" to="TL2N"/>
    <trip id="206" type="vTypeMotorcycle" depart="211.00" from="E2TL" to="TL2W"/>
    <trip id="207" type="vTypeCar" depart="211.00" from="S2TL" to="TL2W"/>
    <trip id="208" type="vTypeMotorcycle" depart="212.00" from="N2TL" to="TL2S"/>
    <trip id="209" type="vTypeCar" depart="212.00" from="N2TL" to="TL2W"/>
    <trip id="211" type="vTypeCar" depart="215.00" from="N2TL" to="TL2E"/>
    <trip id="212" type="vTypeMotorcycle" depart="216.00" from="S2TL" to="TL2N"/>
    <trip id="213" type="vTypeMotorcycle" depart="217.00" from="S2TL" to="TL2W"/>
    <trip id="214" type="vTypeMotorcycle" depart="218.00" from="E2TL" to="TL2S"/>
    <trip id="216" type="vTypeCar" depart="219.00" from="S2TL" to="TL2W"/>
    <trip id="217" type="vTypeMotorcycle" depart="219.00" from="W2TL" to="TL2S"/>
    <trip id="218" type="vTypeMotorcycle" depart="224.00" from="E2TL" to="TL2S"/>
    <trip id="219" type="vTypeCar" depart="225.00" from="E2TL" to="TL2S"/>
    <trip id="221" type="vTypeCar" depart="229.00" from="S2TL" to="TL2W"/>
    <trip id="222" type="vTypeMotorcycle" depart="229.00" from="W2TL" to="TL2S"/>
    <trip id="223" type="vTypeCar" depart="230.00" from="E2TL" to="TL2N"/>
    <trip id="224" type="vTypeMotorcycle" depart="230.00" from="W2TL" to="TL2N"/>
    <trip id="225" type="vTypeMotorcycle" depart="233.00" from="S2TL" to="TL2N"/>
    <trip id="226" type="vTypeMotorcycle" depart="234.00" from="N2TL" to="TL2E"/>
    <trip id="227" type="vTypeCar" depart="237.00" from="S2TL" to="TL2W"/>
    <trip id="228" type="vTypeMotorcycle" depart="239.00" from="N2TL" to="TL2W"/>
    <trip id="229" type="vTypeCar" depart="239.00" from="E2TL" to="TL2W"/>
    <trip id="230" type="vTypeCar" depart="241.00" from="N2TL" to="TL2S"/>
    <trip id="231" type="vTypeMotorcycle" depart="243.00" from="S2TL" to="TL2N"/>
    <trip id="232" type="vTypeCar" depart="245.00" from="N2TL" to="TL2S"/>
    <trip id="233" type="vTypeMotorcycle" depart="246.00" from="S2TL" to="TL2N"/>
    <trip id="234" type="vTypeMotorcycle" depart="247.00" from="W2TL" to="TL2N"/>
    <trip id="235" type="vTypeMotorcycle" depart="247.00" from="S2TL" to="TL2W"/>
    <trip id="236" type="vTypeMotorcycle" depart="248.00" from="W2TL" to="TL2N"/>
    <trip id="237" type="vTypeMotorcycle" depart="249.00" from="W2TL" to="TL2E"/>
    <trip id="238" type="vTypeMotorcycle" depart="249.00" from="W2TL" to="TL2S"/>
    <trip id="239" type="vTypeMotorcycle" depart="250.00" from="N2TL" to="TL2S"/>
    <trip id="240" type="vTypeCar" depart="250.00" from="E2TL" to="TL2N"/>
    <trip id="241" type="vTypeCar" depart="250.00" from="E2TL" to="TL2W"/>
    <trip id="242" type="vTypeMotorcycle" depart="251.00" from="E2TL" to="TL2W"/>
    <trip id="243" type="vTypeCar" depart="251.00" from="S2TL" to="TL2N"/>
    <trip id="244" type="vTypeCar" depart="251.00" from="N2TL" to="TL2E"/>
    <trip id="245" type="vTypeCar" depart="251.00" from="W2TL" to="TL2N"/>
    <trip id="247" type="vTypeCar" depart="253.00" from="S2TL" to="TL2W"/>
    <trip id="250" type="vTypeCar" depart="254.00" from="N2TL" to="TL2E"/>
    <trip id="251" type="vTypeMotorcycle" depart="255.00" from="N2TL" to="TL2S"/>
    <trip id="252" type="vTypeMotorcycle" depart="256.00" from="W2TL" to="TL2E"/>
    <trip id="253" type="vTypeMotorcycle" depart="256.00" from="W2TL" to="TL2N"/>
    <trip id="255" type="vTypeMotorcycle" depart="259.00" from="N2TL" to="TL2E"/>
    <trip id="256" type="vTypeMotorcycle" depart="260.00" from="E2TL" to="TL2W"/>
    <trip id="257" type="vTypeMotorcycle" depart="261.00" from="S2TL" to="TL2N"/>
    <trip id="261" type="vTypeMotorcycle" depart="267.00" from="N2TL" to="TL2S"/>
    <trip id="265" type="vTypeMotorcycle" depart="270.00" from="S2TL" to="TL2W"/>
    <trip id="266" type="vTypeMotorcycle" depart="272.00" from="N2TL" to="TL2E"/>
    <trip id="267" type="vTypeCar" depart="272.00" from="N2TL" to="TL2S"/>
    <trip id="269" type="vTypeMotorcycle" depart="273.00" from="S2TL" to="TL2E"/>
    <trip id="271" type="vTypeCar" depart="273.00" from="W2TL" to="TL2E"/>
    <trip id="272" type="vTypeMotorcycle" depart="274.00" from="N2TL" to="TL2E"/>
    <trip id="273" type="vTypeMotorcycle" depart="275.00" from="E2TL" to="TL2N"/>
    <trip id="274" type="vTypeCar" depart="275.00" from="N2TL" to="TL2S"/>
    <trip id="276" type="vTypeMotorcycle" depart="277.00" from="S2TL" to="TL2E"/>
    <trip id="278" type="vTypeMotorcycle" depart="278.00" from="E2TL" to="TL2W"/>
    <trip id="279" type="vTypeMotorcycle" depart="278.00" from="N2TL" to="TL2S"/>
    <trip id="280" type="vTypeCar" depart="279.00" from="E2TL" to="TL2S"/>
    <trip id="282" type="vTypeMotorcycle" depart="281.00" from="N2TL" to="TL2W"/>
    <trip id="283" type="vTypeMotorcycle" depart="281.00" from="E2TL" to="TL2N"/>
    <trip id="284" type="vTypeCar" depart="281.00" from="N2TL" to="TL2E"/>
    <trip id="285" type="vTypeMotorcycle" depart="282.00" from="E2TL" to="TL2N"/>
    <trip id="287" type="vTypeMotorcycle" depart="284.00" from="E2TL" to="TL2S"/>
    <trip id="288" type="vTypeMotorcycle" depart="286.00" from="E2TL" to="TL2W"/>
    <trip id="289" type="vTypeCar" depart="288.00" from="W2TL" to="TL2E"/>
    <trip id="291" type="vTypeMotorcycle" depart="289.00" from="S2TL" to="TL2W"/>
    <trip id="293" type="vTypeMotorcycle" depart="290.00" from="S2TL" to="TL2E"/>
    <trip id="295" type="vTypeMotorcycle" depart="295.00" from="E2TL" to="TL2N"/>
    <trip id="296" type="vTypeMotorcycle" depart="296.00" from="S2TL" to="TL2W"/>
    <trip id="300" type="vTypeMotorcycle" depart="300.00" from="W2TL" to="TL2S"/>
    <trip id="301" type="vTypeMotorcycle" depart="301.00" from="S2TL" to="TL2E"/>
    <trip id="302" type="vTypeMotorcycle" depart="305.00" from="S2TL" to="TL2N"/>
    <trip id="303" type="vTypeCar" depart="305.00" from="W2TL" to="TL2S"/>
    <trip id="304" type="vTypeMotorcycle" depart="306.00" from="E2TL" to="TL2S"/>
    <trip id="305" type="vTypeMotorcycle" depart="306.00" from="N2TL" to="TL2S"/>
    <trip id="306" type="vTypeMotorcycle" depart="306.00" from="W2TL" to="TL2N"/>
    <trip id="307" type="vTypeMotorcycle" depart="307.00" from="N2TL" to="TL2E"/>
    <trip id="308" type="vTypeCar" depart="307.00" from="E2TL" to="TL2W"/>
    <trip id="309" type="vTypeMotorcycle" depart="307.00" from="N2TL" to="TL2W"/>
    <trip id="310" type="vTypeMotorcycle" depart="307.00" from="N2TL" to="TL2E"/>
    <trip id="312" type="vTypeMotorcycle" depart="309.00" from="E2TL" to="TL2S"/>
    <trip id="313" type="vTypeMotorcycle" depart="311.00" from="S2TL" to="TL2E"/>
    <trip id="314" type="vTypeCar" depart="311.00" from="S2TL" to="TL2E"/>
    <trip id="315" type="vTypeCar" depart="311.00" from="S2TL" to="TL2N"/>
    <trip id="317" type="vTypeCar" depart="312.00" from="S2TL" to="TL2E"/>
    <trip id="318" type="vTypeCar" depart="312.00" from="W2TL" to="TL2S"/>
    <trip id="320" type="vTypeMotorcycle" depart="315.00" from="N2TL" to="TL2E"/>
    <trip id="321" type="vTypeMotorcycle" depart="318.00" from="N2TL" to="TL2S"/>
    <trip id="322" type="vTypeMotorcycle" depart="319.00" from="S2TL" to="TL2W"/>
    <trip id="323" type="vTypeCar" depart="319.00" from="N2TL" to="TL2S"/>
    <trip id="324" type="vTypeMotorcycle" depart="321.00" from="N2TL" to="TL2E"/>
    <trip id="328" type="vTypeMotorcycle" depart="322.00" from="E2TL" to="TL2W"/>
    <trip id="329" type="vTypeMotorcycle" depart="323.00" from="E2TL" to="TL2N"/>
    <trip id="330" type="vTypeMotorcycle" depart="323.00" from="W2TL" to="TL2E"/>
    <trip id="331" type="vTypeCar" depart="323.00" from="N2TL" to="TL2W"/>
    <trip id="334" type="vTypeCar" depart="327.00" from="E2TL" to="TL2S"/>
    <trip id="335" type="vTypeCar" depart="327.00" from="W2TL" to="TL2S"/>
    <trip id="337" type="vTypeCar" depart="330.00" from="S2TL" to="TL2E"/>
    <trip id="338" type="vTypeMotorcycle" depart="331.00" from="W2TL" to="TL2N"/>
    <trip id="339" type="vTypeMotorcycle" depart="333.00" from="S2TL" to="TL2E"/>
    <trip id="340" type="vTypeMotorcycle" depart="334.00" from="E2TL" to="TL2N"/>
    <trip id="342" type="vTypeCar" depart="335.00" from="N2TL" to="TL2W"/>
    <trip id="343" type="vTypeMotorcycle" depart="336.00" from="E2TL" to="TL2W"/>
    <trip id="345" type="vTypeCar" depart="338.00" from="N2TL" to="TL2S"/>
    <trip id="346" type="vTypeMotorcycle" depart="339.00" from="E2TL" to="TL2S"/>
    <trip id="348" type="vTypeMotorcycle" depart="341.00" from="N2TL" to="TL2W"/>
    <trip id="350" type="vTypeMotorcycle" depart="342.00" from="E2TL" to="TL2S"/>
    <trip id="351" type="vTypeCar" depart="344.00" from="S2TL" to="TL2W"/>
    <trip id="353" type="vTypeMotorcycle" depart="346.00" from="E2TL" to="TL2N"/>
    <trip id="354" type="vTypeMotorcycle" depart="348.00" from="N2TL" to="TL2W"/>
    <trip id="356" type="vTypeMotorcycle" depart="348.00" from="W2TL" to="TL2S"/>
    <trip id="359" type="vTypeMotorcycle" depart="352.00" from="S2TL" to="TL2E"/>
    <trip id="360" type="vTypeMotorcycle" depart="352.00" from="W2TL" to="TL2N"/>
    <trip id="361" type="vTypeCar" depart="352.00" from="E2TL" to="TL2N"/>
    <trip id="365" type="vTypeMotorcycle" depart="358.00" from="E2TL" to="TL2N"/>
    <trip id="366" type="vTypeMotorcycle" depart="359.00" from="N2TL" to="TL2E"/>
    <trip id="367" type="vTypeCar" depart="360.00" from="S2TL" to="TL2N"/>
    <trip id="368" type="vTypeMotorcycle" depart="360.00" from="E2TL" to="TL2N"/>
    <trip id="369" type="vTypeCar" depart="361.00" from="E2TL" to="TL2S"/>
    <trip id="370" type="vTypeCar" depart="362.00" from="N2TL" to="TL2E"/>
    <trip id="371" type="vTypeMotorcycle" depart="366.00" from="E2TL" to="TL2N"/>
    <trip id="372" type="vTypeMotorcycle" depart="371.00" from="S2TL" to="TL2N"/>
    <trip id="373" type="vTypeCar" depart="371.00" from="W2TL" to="TL2S"/>
    <trip id="375" type="vTypeCar" depart="372.00" from="S2TL" to="TL2W"/>
    <trip id="376" type="vTypeMotorcycle" depart="372.00" from="N2TL" to="TL2E"/>
    <trip id="377" type="vTypeMotorcycle" depart="372.00" from="E2TL" to="TL2N"/>
    <trip id="378" type="vTypeMotorcycle" depart="373.00" from="N2TL" to="TL2S"/>
    <trip id="379" type="vTypeMotorcycle" depart="374.00" from="E2TL" to="TL2S"/>
    <trip id="380" type="vTypeMotorcycle" depart="375.00" from="W2TL" to="TL2E"/>
    <trip id="381" type="vTypeMotorcycle" depart="375.00" from="W2TL" to="TL2N"/>
    <trip id="382" type="vTypeCar" depart="379.00" from="S2TL" to="TL2E"/>
    <trip id="383" type="vTypeMotorcycle" depart="381.00" from="N2TL" to="TL2W"/>
    <trip id="384" type="vTypeMotorcycle" depart="382.00" from="W2TL" to="TL2N"/>
    <trip id="385" type="vTypeMotorcycle" depart="388.00" from="W2TL" to="TL2E"/>
    <trip id="386" type="vTypeMotorcycle" depart="389.00" from="N2TL" to="TL2E"/>
    <trip id="387" type="vTypeMotorcycle" depart="390.00" from="S2TL" to="TL2E"/>
    <trip id="390" type="vTypeCar" depart="393.00" from="W2TL" to="TL2S"/>
    <trip id="391" type="vTypeMotorcycle" depart="393.00" from="E2TL" to="TL2S"/>
    <trip id="392" type="vTypeMotorcycle" depart="395.00" from="W2TL" to="TL2N"/>
    <trip id="393" type="vTypeMotorcycle" depart="399.00" from="N2TL" to="TL2S"/>
    <trip id="394" type="vTypeCar" depart="399.00" from="E2TL" to="TL2S"/>
    <trip id="395" type="vTypeCar" depart="401.00" from="N2TL" to="TL2E"/>
    <trip id="397" type="vTypeMotorcycle" depart="402.00" from="N2TL" to="TL2W"/>
    <trip id="400" type="vTypeMotorcycle" depart="411.00" from="E2TL" to="TL2S"/>
    <trip id="401" type="vTypeCar" depart="412.00" from="S2TL" to="TL2E"/>
    <trip id="402" type="vTypeCar" depart="413.00" from="E2TL" to="TL2N"/>
    <trip id="403" type="vTypeMotorcycle" depart="415.00" from="E2TL" to="TL2W"/>
    <trip id="405" type="vTypeCar" depart="418.00" from="S2TL" to="TL2W"/>
    <trip id="406" type="vTypeMotorcycle" depart="418.00" from="W2TL" to="TL2N"/>
    <trip id="407" type="vTypeMotorcycle" depart="418.00" from="N2TL" to="TL2S"/>
    <trip id="408" type="vTypeCar" depart="419.00" from="E2TL" to="TL2S"/>
    <trip id="409" type="vTypeCar" depart="423.00" from="N2TL" to="TL2E"/>
    <trip id="410" type="vTypeMotorcycle" depart="423.00" from="E2TL" to="TL2W"/>
    <trip id="411" type="vTypeMotorcycle" depart="423.00" from="S2TL" to="TL2W"/>
    <trip id="412" type="vTypeMotorcycle" depart="425.00" from="S2TL" to="TL2N"/>
    <trip id="413" type="vTypeMotorcycle" depart="426.00" from="N2TL" to="TL2W"/>
    <trip id="415" type="vTypeMotorcycle" depart="427.00" from="N2TL" to="TL2E"/>
    <trip id="416" type="vTypeMotorcycle" depart="428.00" from="W2TL" to="TL2N"/>
    <trip id="417" type="vTypeMotorcycle" depart="430.00" from="W2TL" to="TL2E"/>
    <trip id="420" type="vTypeMotorcycle" depart="435.00" from="S2TL" to="TL2W"/>
    <trip id="423" type="vTypeCar" depart="439.00" from="W2TL" to="TL2N"/>
    <trip id="425" type="vTypeMotorcycle" depart="442.00" from="S2TL" to="TL2E"/>
    <trip id="426" type="vTypeMotorcycle" depart="445.00" from="S2TL" to="TL2E"/>
    <trip id="427" type="vTypeMotorcycle" depart="445.00" from="E2TL" to="TL2S"/>
    <trip id="428" type="vTypeMotorcycle" depart="445.00" from="E2TL" to="TL2N"/>
    <trip id="430" type="vTypeCar" depart="451.00" from="N2TL" to="TL2S"/>
    <trip id="431" type="vTypeMotorcycle" depart="451.00" from="S2TL" to="TL2N"/>
    <trip id="432" type="vTypeMotorcycle" depart="451.00" from="N2TL" to="TL2E"/>
    <trip id="433" type="vTypeMotorcycle" depart="452.00" from="S2TL" to="TL2W"/>
    <trip id="435" type="vTypeCar" depart="452.00" from="N2TL" to="TL2W"/>
    <trip id="436" type="vTypeMotorcycle" depart="453.00" from="W2TL" to="TL2E"/>
    <trip id="437" type="vTypeMotorcycle" depart="453.00" from="E2TL" to="TL2S"/>
    <trip id="438" type="vTypeMotorcycle" depart="454.00" from="N2TL" to="TL2W"/>
    <trip id="439" type="vTypeMotorcycle" depart="455.00" from="W2TL" to="TL2S"/>
    <trip id="440" type="vTypeMotorcycle" depart="456.00" from="E2TL" to="TL2W"/>
    <trip id="441" type="vTypeMotorcycle" depart="457.00" from="S2TL" to="TL2E"/>
    <trip id="442" type="vTypeMotorcycle" depart="460.00" from="S2TL" to="TL2W"/>
    <trip id="444" type="vTypeMotorcycle" depart="461.00" from="W2TL" to="TL2N"/>
    <trip id="445" type="vTypeCar" depart="461.00" from="N2TL" to="TL2S"/>
    <trip id="446" type="vTypeCar" depart="462.00" from="N2TL" to="TL2E"/>
    <trip id="448" type="vTypeMotorcycle" depart="466.00" from="S2TL" to="TL2N"/>
    <trip id="450" type="vTypeMotorcycle" depart="469.00" from="N2TL" to="TL2W"/>
    <trip id="453" type="vTypeCar" depart="471.00" from="S2TL" to="TL2N"/>
    <trip id="454" type="vTypeMotorcycle" depart="471.00" from="S2TL" to="TL2E"/>
    <trip id="455" type="vTypeMotorcycle" depart="473.00" from="W2TL" to="TL2E"/>
    <trip id="456" type="vTypeMotorcycle" depart="474.00" from="W2TL" to="TL2E"/>
    <trip id="457" type="vTypeMotorcycle" depart="475.00" from="E2TL" to="TL2W"/>
    <trip id="461" type="vTypeMotorcycle" depart="478.00" from="S2TL" to="TL2N"/>
    <trip id="462" type="vTypeCar" depart="478.00" from="E2TL" to="TL2W"/>
    <trip id="464" type="vTypeMotorcycle" depart="479.00" from="E2TL" to="TL2N"/>
    <trip id="465" type="vTypeCar" depart="480.00" from="N2TL" to="TL2E"/>
    <trip id="466" type="vTypeCar" depart="480.00" from="N2TL" to="TL2W"/>